<?xml version="1.0" encoding="UTF-8"?>
<edges xmlns:xsi="http://www.w3.org/2001/XMLSchema-instance" xsi:noNamespaceSchemaLocation="http://sumo.sf.net/xsd/edges_file.xsd">
    <edge from="11" id="1112" to="12" numLanes="2" speed="16.7"/>
    <edge from="12" id="1213" to="13" numLanes="2" speed="16.7"/>
    <edge from="21" id="2122" to="22" numLanes="2" speed="16.7"/>
    <edge from="22" id="2223" to="23" numLanes="2" speed="16.7"/>
    <edge from="31" id="3132" to="32" numLanes="2" speed="16.7"/>
    <edge from="32" id="3233" to="33" numLanes="2" speed="16.7"/>
    <edge from="11" id="11c1" to="c1" numLanes="2" speed="16.7"/>
    <edge from="c1" id="c121" to="21" numLanes="2" speed="16.7"/>
    <edge from="21" id="2131" to="31" numLanes="2" speed="16.7"/>
    <edge from="12" id="12c5" to="c5" numLanes="2" speed="16.7"/>
    <edge from="c5" id="c522" to="22" numLanes="2" speed="16.7"/>
    <edge from="22" id="2232" to="32" numLanes="2" speed="16.7"/>
    <edge from="13" id="1323" to="23" numLanes="2" speed="16.7"/>
    <edge from="23" id="2333" to="33" numLanes="2" speed="16.7"/>
    <edge from="12" id="1211" to="11" numLanes="2" speed="16.7"/>
    <edge from="13" id="1312" to="12" numLanes="2" speed="16.7"/>
    <edge from="22" id="2221" to="21" numLanes="2" speed="16.7"/>
    <edge from="23" id="2322" to="22" numLanes="2" speed="16.7"/>
    <edge from="32" id="3231" to="31" numLanes="2" speed="16.7"/>
    <edge from="33" id="3332" to="32" numLanes="2" speed="16.7"/>
    <edge from="21" id="21c1" to="c1" numLanes="2" speed="16.7"/>
    <edge from="c1" id="c111" to="11" numLanes="2" speed="16.7"/>
    <edge from="31" id="3121" to="21" numLanes="2" speed="16.7"/>
    <edge from="22" id="22c5" to="c5" numLanes="2" speed="16.7"/>
    <edge from="c5" id="c512" to="12" numLanes="2" speed="16.7"/>
    <edge from="32" id="3222" to="22" numLanes="2" speed="16.7"/>
    <edge from="23" id="2313" to="13" numLanes="2" speed="16.7"/>
    <edge from="33" id="3323" to="23" numLanes="2" speed="16.7"/>
	<edge from="depot" id="out" to="11" numLanes="2" speed="16.7"/>
	<edge from="11" id="in" to="depot" numLanes="2" speed="16.7"/>
    <edge from="c1" id="c1c22" to="c22" numLanes="1" speed="11.1"/>
    <edge from="c22" id="c22c1" to="c1" numLanes="1" speed="11.1"/>
    <edge from="c23" id="c23c22" to="c22" numLanes="1" speed="11.1"/>
    <edge from="c21" id="c21c22" to="c22" numLanes="1" speed="11.1"/>
    <edge from="c22" id="c22c21" to="c21" numLanes="1" speed="11.1"/>
    <edge from="c22" id="c22c23" to="c23" numLanes="1" speed="11.1"/>
    <edge from="c22" id="c22c32" to="c32" numLanes="1" speed="11.1"/>
    <edge from="c32" id="c32c22" to="c22" numLanes="1" speed="11.1"/>
    <edge from="c32" id="c32c31" to="c31" numLanes="1" speed="11.1"/>
    <edge from="c32" id="c32c33" to="c33" numLanes="1" speed="11.1"/>
    <edge from="c31" id="c31c32" to="c32" numLanes="1" speed="11.1"/>
    <edge from="c33" id="c33c32" to="c32" numLanes="1" speed="11.1"/>
    <edge from="c32" id="c32c42" to="c42" numLanes="1" speed="11.1"/>
    <edge from="c42" id="c42c32" to="c32" numLanes="1" speed="11.1"/>
    <edge from="c42" id="c42c41" to="c41" numLanes="1" speed="11.1"/>
    <edge from="c41" id="c41c42" to="c42" numLanes="1" speed="11.1"/>
    <edge from="c43" id="c43c42" to="c42" numLanes="1" speed="11.1"/>
    <edge from="c42" id="c42c43" to="c43" numLanes="1" speed="11.1"/>
    <edge from="c42" id="c42c5" to="c5" numLanes="1" speed="11.1"/>
    <edge from="c5" id="c5c42" to="c42" numLanes="1" speed="11.1"/>
</edges>
