<?xml version="1.0" encoding="UTF-8"?>

<!-- generated on 01/15/14 16:38:57 by SUMO netconvert Version 0.18.0
<?xml version="1.0" encoding="UTF-8"?>

<configuration xmlns:xsi="http://www.w3.org/2001/XMLSchema-instance" xsi:noNamespaceSchemaLocation="http://sumo.sf.net/xsd/netconvertConfiguration.xsd">

    <input>
        <node-files value="grid2.nod.xml"/>
        <edge-files value="grid2.edg.xml"/>
    </input>

    <output>
        <output-file value="grid2-t.net.xml"/>
    </output>

    <processing>
        <lefthand value="true"/>
    </processing>

</configuration>
-->

<net version="0.13" xmlns:xsi="http://www.w3.org/2001/XMLSchema-instance" xsi:noNamespaceSchemaLocation="http://sumo.sf.net/xsd/net_file.xsd">

    <location netOffset="1000.00,100.00" convBoundary="0.00,0.00,2000.00,2100.00" origBoundary="-1000.00,-100.00,1000.00,2000.00" projParameter="!"/>

    <edge id=":11_0" function="internal">
        <lane id=":11_0_0" index="0" speed="16.67" length="3.30" shape="4.95,100.00 1.65,100.00"/>
    </edge>
    <edge id=":11_1" function="internal">
        <lane id=":11_1_0" index="0" speed="16.67" length="5.59" shape="4.95,100.00 4.64,100.72 3.71,101.24 2.17,101.55 0.00,101.65"/>
    </edge>
    <edge id=":11_2" function="internal">
        <lane id=":11_2_0" index="0" speed="16.67" length="3.30" shape="1.65,100.00 4.95,100.00"/>
    </edge>
    <edge id=":11_3" function="internal">
        <lane id=":11_3_0" index="0" speed="16.67" length="2.41" shape="1.65,100.00 0.83,101.24 0.00,101.65"/>
    </edge>
    <edge id=":11_11" function="internal">
        <lane id=":11_11_0" index="0" speed="16.67" length="2.41" shape="0.00,101.65 -0.82,101.24 -1.65,100.00"/>
    </edge>
    <edge id=":11_4" function="internal">
        <lane id=":11_4_0" index="0" speed="16.67" length="5.59" shape="0.00,95.05 0.72,95.36 1.24,96.29 1.55,97.83 1.65,100.00"/>
    </edge>
    <edge id=":11_5" function="internal">
        <lane id=":11_5_0" index="0" speed="16.67" length="5.59" shape="0.00,98.35 -2.17,98.45 -3.71,98.76 -4.64,99.28 -4.95,100.00"/>
    </edge>
    <edge id=":11_6" function="internal">
        <lane id=":11_6_0" index="0" speed="16.67" length="4.82" shape="0.00,98.35 1.24,99.18 1.65,100.00 1.24,100.83 0.00,101.65"/>
    </edge>
    <edge id=":11_7" function="internal">
        <lane id=":11_7_0" index="0" speed="16.67" length="3.30" shape="-4.95,100.00 -1.65,100.00"/>
    </edge>
    <edge id=":11_8" function="internal">
        <lane id=":11_8_0" index="0" speed="16.67" length="5.59" shape="-1.65,100.00 -1.55,102.17 -1.24,103.71 -0.72,104.64 0.00,104.95"/>
    </edge>
    <edge id=":11_9" function="internal">
        <lane id=":11_9_0" index="0" speed="16.67" length="3.30" shape="-1.65,100.00 -4.95,100.00"/>
    </edge>
    <edge id=":11_10" function="internal">
        <lane id=":11_10_0" index="0" speed="16.67" length="2.41" shape="-1.65,100.00 -0.83,98.76 -0.00,98.35"/>
    </edge>
    <edge id=":11_12" function="internal">
        <lane id=":11_12_0" index="0" speed="16.67" length="2.41" shape="-0.00,98.35 0.82,98.76 1.65,100.00"/>
    </edge>
    <edge id=":12_0" function="internal">
        <lane id=":12_0_0" index="0" speed="16.67" length="5.59" shape="1004.95,100.00 1004.64,100.72 1003.71,101.24 1002.17,101.55 1000.00,101.65"/>
    </edge>
    <edge id=":12_1" function="internal">
        <lane id=":12_1_0" index="0" speed="16.67" length="5.59" shape="1001.65,100.00 1001.55,97.83 1001.24,96.29 1000.72,95.36 1000.00,95.05"/>
    </edge>
    <edge id=":12_2" function="internal">
        <lane id=":12_2_0" index="0" speed="16.67" length="4.82" shape="1001.65,100.00 1000.83,101.24 1000.00,101.65 999.17,101.24 998.35,100.00"/>
    </edge>
    <edge id=":12_3" function="internal">
        <lane id=":12_3_0" index="0" speed="16.67" length="3.30" shape="1000.00,95.05 1000.00,98.35"/>
    </edge>
    <edge id=":12_4" function="internal">
        <lane id=":12_4_0" index="0" speed="16.67" length="5.59" shape="1000.00,98.35 997.83,98.45 996.29,98.76 995.36,99.28 995.05,100.00"/>
    </edge>
    <edge id=":12_5" function="internal">
        <lane id=":12_5_0" index="0" speed="16.67" length="3.30" shape="1000.00,98.35 1000.00,95.05"/>
    </edge>
    <edge id=":12_6" function="internal">
        <lane id=":12_6_0" index="0" speed="16.67" length="2.41" shape="1000.00,98.35 1001.24,99.18 1001.65,100.00"/>
    </edge>
    <edge id=":12_11" function="internal">
        <lane id=":12_11_0" index="0" speed="16.67" length="2.41" shape="1001.65,100.00 1001.24,100.83 1000.00,101.65"/>
    </edge>
    <edge id=":12_7" function="internal">
        <lane id=":12_7_0" index="0" speed="16.67" length="3.30" shape="1000.00,104.95 1000.00,101.65"/>
    </edge>
    <edge id=":12_8" function="internal">
        <lane id=":12_8_0" index="0" speed="16.67" length="5.59" shape="1000.00,104.95 999.28,104.64 998.76,103.71 998.45,102.17 998.35,100.00"/>
    </edge>
    <edge id=":12_9" function="internal">
        <lane id=":12_9_0" index="0" speed="16.67" length="3.30" shape="1000.00,101.65 1000.00,104.95"/>
    </edge>
    <edge id=":12_10" function="internal">
        <lane id=":12_10_0" index="0" speed="16.67" length="2.41" shape="1000.00,101.65 998.76,100.82 998.35,100.00"/>
    </edge>
    <edge id=":12_12" function="internal">
        <lane id=":12_12_0" index="0" speed="16.67" length="2.41" shape="998.35,100.00 998.76,99.17 1000.00,98.35"/>
    </edge>
    <edge id=":13_0" function="internal">
        <lane id=":13_0_0" index="0" speed="16.67" length="5.59" shape="2004.95,100.00 2004.64,99.28 2003.71,98.76 2002.17,98.45 2000.00,98.35"/>
    </edge>
    <edge id=":13_1" function="internal">
        <lane id=":13_1_0" index="0" speed="16.67" length="5.59" shape="2001.65,100.00 2001.55,97.83 2001.24,96.29 2000.72,95.36 2000.00,95.05"/>
    </edge>
    <edge id=":13_2" function="internal">
        <lane id=":13_2_0" index="0" speed="16.67" length="2.41" shape="2001.65,100.00 2000.83,101.24 2000.00,101.65"/>
    </edge>
    <edge id=":13_6" function="internal">
        <lane id=":13_6_0" index="0" speed="16.67" length="2.41" shape="2000.00,101.65 1999.17,101.24 1998.35,100.00"/>
    </edge>
    <edge id=":13_3" function="internal">
        <lane id=":13_3_0" index="0" speed="16.67" length="5.59" shape="2000.00,104.95 1999.28,104.64 1998.76,103.71 1998.45,102.17 1998.35,100.00"/>
    </edge>
    <edge id=":13_4" function="internal">
        <lane id=":13_4_0" index="0" speed="16.67" length="5.59" shape="2000.00,101.65 1997.83,101.55 1996.29,101.24 1995.36,100.72 1995.05,100.00"/>
    </edge>
    <edge id=":13_5" function="internal">
        <lane id=":13_5_0" index="0" speed="16.67" length="2.41" shape="2000.00,101.65 1998.76,100.82 1998.35,100.00"/>
    </edge>
    <edge id=":13_7" function="internal">
        <lane id=":13_7_0" index="0" speed="16.67" length="2.41" shape="1998.35,100.00 1998.76,99.17 2000.00,98.35"/>
    </edge>
    <edge id=":21_0" function="internal">
        <lane id=":21_0_0" index="0" speed="16.67" length="3.30" shape="4.95,1100.00 1.65,1100.00"/>
    </edge>
    <edge id=":21_1" function="internal">
        <lane id=":21_1_0" index="0" speed="16.67" length="5.59" shape="4.95,1100.00 4.64,1100.72 3.71,1101.24 2.17,1101.55 0.00,1101.65"/>
    </edge>
    <edge id=":21_2" function="internal">
        <lane id=":21_2_0" index="0" speed="16.67" length="3.30" shape="1.65,1100.00 4.95,1100.00"/>
    </edge>
    <edge id=":21_3" function="internal">
        <lane id=":21_3_0" index="0" speed="16.67" length="2.41" shape="1.65,1100.00 0.83,1101.24 0.00,1101.65"/>
    </edge>
    <edge id=":21_11" function="internal">
        <lane id=":21_11_0" index="0" speed="16.67" length="2.41" shape="0.00,1101.65 -0.82,1101.24 -1.65,1100.00"/>
    </edge>
    <edge id=":21_4" function="internal">
        <lane id=":21_4_0" index="0" speed="16.67" length="5.59" shape="0.00,1095.05 0.72,1095.36 1.24,1096.29 1.55,1097.83 1.65,1100.00"/>
    </edge>
    <edge id=":21_5" function="internal">
        <lane id=":21_5_0" index="0" speed="16.67" length="5.59" shape="0.00,1098.35 -2.17,1098.45 -3.71,1098.76 -4.64,1099.28 -4.95,1100.00"/>
    </edge>
    <edge id=":21_6" function="internal">
        <lane id=":21_6_0" index="0" speed="16.67" length="4.82" shape="0.00,1098.35 1.24,1099.18 1.65,1100.00 1.24,1100.83 0.00,1101.65"/>
    </edge>
    <edge id=":21_7" function="internal">
        <lane id=":21_7_0" index="0" speed="16.67" length="3.30" shape="-4.95,1100.00 -1.65,1100.00"/>
    </edge>
    <edge id=":21_8" function="internal">
        <lane id=":21_8_0" index="0" speed="16.67" length="5.59" shape="-1.65,1100.00 -1.55,1102.17 -1.24,1103.71 -0.72,1104.64 0.00,1104.95"/>
    </edge>
    <edge id=":21_9" function="internal">
        <lane id=":21_9_0" index="0" speed="16.67" length="3.30" shape="-1.65,1100.00 -4.95,1100.00"/>
    </edge>
    <edge id=":21_10" function="internal">
        <lane id=":21_10_0" index="0" speed="16.67" length="2.41" shape="-1.65,1100.00 -0.83,1098.76 -0.00,1098.35"/>
    </edge>
    <edge id=":21_12" function="internal">
        <lane id=":21_12_0" index="0" speed="16.67" length="2.41" shape="-0.00,1098.35 0.82,1098.76 1.65,1100.00"/>
    </edge>
    <edge id=":22_0" function="internal">
        <lane id=":22_0_0" index="0" speed="16.67" length="3.30" shape="1004.95,1100.00 1001.65,1100.00"/>
    </edge>
    <edge id=":22_1" function="internal">
        <lane id=":22_1_0" index="0" speed="16.67" length="5.59" shape="1004.95,1100.00 1004.64,1100.72 1003.71,1101.24 1002.17,1101.55 1000.00,1101.65"/>
    </edge>
    <edge id=":22_2" function="internal">
        <lane id=":22_2_0" index="0" speed="16.67" length="5.59" shape="1001.65,1100.00 1001.55,1097.83 1001.24,1096.29 1000.72,1095.36 1000.00,1095.05"/>
    </edge>
    <edge id=":22_3" function="internal">
        <lane id=":22_3_0" index="0" speed="16.67" length="3.30" shape="1001.65,1100.00 1004.95,1100.00"/>
    </edge>
    <edge id=":22_4" function="internal">
        <lane id=":22_4_0" index="0" speed="16.67" length="2.41" shape="1001.65,1100.00 1000.83,1101.24 1000.00,1101.65"/>
    </edge>
    <edge id=":22_18" function="internal">
        <lane id=":22_18_0" index="0" speed="16.67" length="2.41" shape="1000.00,1101.65 999.17,1101.24 998.35,1100.00"/>
    </edge>
    <edge id=":22_5" function="internal">
        <lane id=":22_5_0" index="0" speed="16.67" length="3.30" shape="1000.00,1095.05 1000.00,1098.35"/>
    </edge>
    <edge id=":22_6" function="internal">
        <lane id=":22_6_0" index="0" speed="16.67" length="5.59" shape="1000.00,1095.05 1000.72,1095.36 1001.24,1096.29 1001.55,1097.83 1001.65,1100.00"/>
    </edge>
    <edge id=":22_7" function="internal">
        <lane id=":22_7_0" index="0" speed="16.67" length="5.59" shape="1000.00,1098.35 997.83,1098.45 996.29,1098.76 995.36,1099.28 995.05,1100.00"/>
    </edge>
    <edge id=":22_8" function="internal">
        <lane id=":22_8_0" index="0" speed="16.67" length="4.82" shape="1000.00,1098.35 1001.24,1099.18 1001.65,1100.00 1001.24,1100.83 1000.00,1101.65"/>
    </edge>
    <edge id=":22_9" function="internal">
        <lane id=":22_9_0" index="0" speed="16.67" length="3.30" shape="995.05,1100.00 998.35,1100.00"/>
    </edge>
    <edge id=":22_10" function="internal">
        <lane id=":22_10_0" index="0" speed="16.67" length="5.59" shape="995.05,1100.00 995.36,1099.28 996.29,1098.76 997.83,1098.45 1000.00,1098.35"/>
    </edge>
    <edge id=":22_11" function="internal">
        <lane id=":22_11_0" index="0" speed="16.67" length="5.59" shape="998.35,1100.00 998.45,1102.17 998.76,1103.71 999.28,1104.64 1000.00,1104.95"/>
    </edge>
    <edge id=":22_12" function="internal">
        <lane id=":22_12_0" index="0" speed="16.67" length="3.30" shape="998.35,1100.00 995.05,1100.00"/>
    </edge>
    <edge id=":22_13" function="internal">
        <lane id=":22_13_0" index="0" speed="16.67" length="2.41" shape="998.35,1100.00 999.17,1098.76 1000.00,1098.35"/>
    </edge>
    <edge id=":22_19" function="internal">
        <lane id=":22_19_0" index="0" speed="16.67" length="2.41" shape="1000.00,1098.35 1000.83,1098.76 1001.65,1100.00"/>
    </edge>
    <edge id=":22_14" function="internal">
        <lane id=":22_14_0" index="0" speed="16.67" length="3.30" shape="1000.00,1104.95 1000.00,1101.65"/>
    </edge>
    <edge id=":22_15" function="internal">
        <lane id=":22_15_0" index="0" speed="16.67" length="5.59" shape="1000.00,1104.95 999.28,1104.64 998.76,1103.71 998.45,1102.17 998.35,1100.00"/>
    </edge>
    <edge id=":22_16" function="internal">
        <lane id=":22_16_0" index="0" speed="16.67" length="5.59" shape="1000.00,1101.65 1002.17,1101.55 1003.71,1101.24 1004.64,1100.72 1004.95,1100.00"/>
    </edge>
    <edge id=":22_17" function="internal">
        <lane id=":22_17_0" index="0" speed="16.67" length="4.82" shape="1000.00,1101.65 998.76,1100.82 998.35,1100.00 998.76,1099.18 1000.00,1098.35"/>
    </edge>
    <edge id=":23_0" function="internal">
        <lane id=":23_0_0" index="0" speed="16.67" length="3.30" shape="2004.95,1100.00 2001.65,1100.00"/>
    </edge>
    <edge id=":23_1" function="internal">
        <lane id=":23_1_0" index="0" speed="16.67" length="5.59" shape="2001.65,1100.00 2001.55,1097.83 2001.24,1096.29 2000.72,1095.36 2000.00,1095.05"/>
    </edge>
    <edge id=":23_2" function="internal">
        <lane id=":23_2_0" index="0" speed="16.67" length="3.30" shape="2001.65,1100.00 2004.95,1100.00"/>
    </edge>
    <edge id=":23_3" function="internal">
        <lane id=":23_3_0" index="0" speed="16.67" length="2.41" shape="2001.65,1100.00 2000.83,1101.24 2000.00,1101.65"/>
    </edge>
    <edge id=":23_11" function="internal">
        <lane id=":23_11_0" index="0" speed="16.67" length="2.41" shape="2000.00,1101.65 1999.17,1101.24 1998.35,1100.00"/>
    </edge>
    <edge id=":23_4" function="internal">
        <lane id=":23_4_0" index="0" speed="16.67" length="3.30" shape="1995.05,1100.00 1998.35,1100.00"/>
    </edge>
    <edge id=":23_5" function="internal">
        <lane id=":23_5_0" index="0" speed="16.67" length="5.59" shape="1995.05,1100.00 1995.36,1099.28 1996.29,1098.76 1997.83,1098.45 2000.00,1098.35"/>
    </edge>
    <edge id=":23_6" function="internal">
        <lane id=":23_6_0" index="0" speed="16.67" length="3.30" shape="1998.35,1100.00 1995.05,1100.00"/>
    </edge>
    <edge id=":23_7" function="internal">
        <lane id=":23_7_0" index="0" speed="16.67" length="2.41" shape="1998.35,1100.00 1999.18,1098.76 2000.00,1098.35"/>
    </edge>
    <edge id=":23_12" function="internal">
        <lane id=":23_12_0" index="0" speed="16.67" length="2.41" shape="2000.00,1098.35 2000.83,1098.76 2001.65,1100.00"/>
    </edge>
    <edge id=":23_8" function="internal">
        <lane id=":23_8_0" index="0" speed="16.67" length="5.59" shape="2000.00,1104.95 1999.28,1104.64 1998.76,1103.71 1998.45,1102.17 1998.35,1100.00"/>
    </edge>
    <edge id=":23_9" function="internal">
        <lane id=":23_9_0" index="0" speed="16.67" length="5.59" shape="2000.00,1101.65 2002.17,1101.55 2003.71,1101.24 2004.64,1100.72 2004.95,1100.00"/>
    </edge>
    <edge id=":23_10" function="internal">
        <lane id=":23_10_0" index="0" speed="16.67" length="4.82" shape="2000.00,1101.65 1998.76,1100.82 1998.35,1100.00 1998.76,1099.18 2000.00,1098.35"/>
    </edge>
    <edge id=":31_0" function="internal">
        <lane id=":31_0_0" index="0" speed="16.67" length="0.10" shape="1.60,2095.05 1.65,2095.10"/>
    </edge>
    <edge id=":31_1" function="internal">
        <lane id=":31_1_0" index="0" speed="16.67" length="0.10" shape="4.90,2098.35 4.95,2098.40"/>
    </edge>
    <edge id=":31_2" function="internal">
        <lane id=":31_2_0" index="0" speed="16.67" length="4.31" shape="4.90,2098.35 4.91,2101.01 4.10,2102.45"/>
    </edge>
    <edge id=":31_6" function="internal">
        <lane id=":31_6_0" index="0" speed="16.67" length="4.31" shape="4.10,2102.45 2.46,2102.66 0.00,2101.65"/>
    </edge>
    <edge id=":31_3" function="internal">
        <lane id=":31_3_0" index="0" speed="16.67" length="5.59" shape="-4.95,2100.00 -4.64,2100.72 -3.71,2101.24 -2.17,2101.55 0.00,2101.65"/>
    </edge>
    <edge id=":31_4" function="internal">
        <lane id=":31_4_0" index="0" speed="16.67" length="5.59" shape="-1.65,2100.00 -1.55,2102.17 -1.24,2103.71 -0.72,2104.64 0.00,2104.95"/>
    </edge>
    <edge id=":31_5" function="internal">
        <lane id=":31_5_0" index="0" speed="16.67" length="4.31" shape="-1.65,2100.00 -2.66,2097.54 -2.45,2095.90"/>
    </edge>
    <edge id=":31_7" function="internal">
        <lane id=":31_7_0" index="0" speed="16.67" length="4.31" shape="-2.45,2095.90 -1.01,2095.09 1.65,2095.10"/>
    </edge>
    <edge id=":32_0" function="internal">
        <lane id=":32_0_0" index="0" speed="16.67" length="3.30" shape="1000.00,2095.05 1000.00,2098.35"/>
    </edge>
    <edge id=":32_1" function="internal">
        <lane id=":32_1_0" index="0" speed="16.67" length="5.59" shape="1000.00,2095.05 1000.72,2095.36 1001.24,2096.29 1001.55,2097.83 1001.65,2100.00"/>
    </edge>
    <edge id=":32_2" function="internal">
        <lane id=":32_2_0" index="0" speed="16.67" length="3.30" shape="1000.00,2098.35 1000.00,2095.05"/>
    </edge>
    <edge id=":32_3" function="internal">
        <lane id=":32_3_0" index="0" speed="16.67" length="2.41" shape="1000.00,2098.35 1001.24,2099.17 1001.65,2100.00"/>
    </edge>
    <edge id=":32_11" function="internal">
        <lane id=":32_11_0" index="0" speed="16.67" length="2.41" shape="1001.65,2100.00 1001.24,2100.83 1000.00,2101.65"/>
    </edge>
    <edge id=":32_4" function="internal">
        <lane id=":32_4_0" index="0" speed="16.67" length="5.59" shape="995.05,2100.00 995.36,2099.28 996.29,2098.76 997.83,2098.45 1000.00,2098.35"/>
    </edge>
    <edge id=":32_5" function="internal">
        <lane id=":32_5_0" index="0" speed="16.67" length="5.59" shape="998.35,2100.00 998.45,2102.17 998.76,2103.71 999.28,2104.64 1000.00,2104.95"/>
    </edge>
    <edge id=":32_6" function="internal">
        <lane id=":32_6_0" index="0" speed="16.67" length="4.82" shape="998.35,2100.00 999.17,2098.76 1000.00,2098.35 1000.83,2098.76 1001.65,2100.00"/>
    </edge>
    <edge id=":32_7" function="internal">
        <lane id=":32_7_0" index="0" speed="16.67" length="3.30" shape="1000.00,2104.95 1000.00,2101.65"/>
    </edge>
    <edge id=":32_8" function="internal">
        <lane id=":32_8_0" index="0" speed="16.67" length="5.59" shape="1000.00,2101.65 1002.17,2101.55 1003.71,2101.24 1004.64,2100.72 1004.95,2100.00"/>
    </edge>
    <edge id=":32_9" function="internal">
        <lane id=":32_9_0" index="0" speed="16.67" length="3.30" shape="1000.00,2101.65 1000.00,2104.95"/>
    </edge>
    <edge id=":32_10" function="internal">
        <lane id=":32_10_0" index="0" speed="16.67" length="2.41" shape="1000.00,2101.65 998.76,2100.83 998.35,2100.00"/>
    </edge>
    <edge id=":32_12" function="internal">
        <lane id=":32_12_0" index="0" speed="16.67" length="2.41" shape="998.35,2100.00 998.76,2099.17 1000.00,2098.35"/>
    </edge>
    <edge id=":33_0" function="internal">
        <lane id=":33_0_0" index="0" speed="16.67" length="5.59" shape="1995.05,2100.00 1995.36,2099.28 1996.29,2098.76 1997.83,2098.45 2000.00,2098.35"/>
    </edge>
    <edge id=":33_1" function="internal">
        <lane id=":33_1_0" index="0" speed="16.67" length="5.59" shape="1998.35,2100.00 1998.45,2097.83 1998.76,2096.29 1999.28,2095.36 2000.00,2095.05"/>
    </edge>
    <edge id=":33_2" function="internal">
        <lane id=":33_2_0" index="0" speed="16.67" length="2.41" shape="1998.35,2100.00 1999.18,2098.76 2000.00,2098.35"/>
    </edge>
    <edge id=":33_6" function="internal">
        <lane id=":33_6_0" index="0" speed="16.67" length="2.41" shape="2000.00,2098.35 2000.83,2098.76 2001.65,2100.00"/>
    </edge>
    <edge id=":33_3" function="internal">
        <lane id=":33_3_0" index="0" speed="16.67" length="5.59" shape="2000.00,2104.95 2000.72,2104.64 2001.24,2103.71 2001.55,2102.17 2001.65,2100.00"/>
    </edge>
    <edge id=":33_4" function="internal">
        <lane id=":33_4_0" index="0" speed="16.67" length="5.59" shape="2000.00,2101.65 2002.17,2101.55 2003.71,2101.24 2004.64,2100.72 2004.95,2100.00"/>
    </edge>
    <edge id=":33_5" function="internal">
        <lane id=":33_5_0" index="0" speed="16.67" length="2.41" shape="2000.00,2101.65 1998.76,2100.83 1998.35,2100.00"/>
    </edge>
    <edge id=":33_7" function="internal">
        <lane id=":33_7_0" index="0" speed="16.67" length="2.41" shape="1998.35,2100.00 1998.76,2099.17 2000.00,2098.35"/>
    </edge>
    <edge id=":c1_0" function="internal">
        <lane id=":c1_0_0" index="0" speed="16.67" length="3.30" shape="4.95,600.00 1.65,600.00"/>
    </edge>
    <edge id=":c1_1" function="internal">
        <lane id=":c1_1_0" index="0" speed="15.25" length="5.59" shape="4.95,600.00 4.64,600.72 3.71,601.24 2.17,601.55 0.00,601.65"/>
    </edge>
    <edge id=":c1_2" function="internal">
        <lane id=":c1_2_0" index="0" speed="16.67" length="3.30" shape="1.65,600.00 4.95,600.00"/>
    </edge>
    <edge id=":c1_3" function="internal">
        <lane id=":c1_3_0" index="0" speed="16.67" length="2.41" shape="1.65,600.00 0.83,601.24 0.00,601.65"/>
    </edge>
    <edge id=":c1_11" function="internal">
        <lane id=":c1_11_0" index="0" speed="16.67" length="2.41" shape="0.00,601.65 -0.82,601.24 -1.65,600.00"/>
    </edge>
    <edge id=":c1_4" function="internal">
        <lane id=":c1_4_0" index="0" speed="15.25" length="5.59" shape="0.00,598.35 -2.17,598.45 -3.71,598.76 -4.64,599.28 -4.95,600.00"/>
    </edge>
    <edge id=":c1_5" function="internal">
        <lane id=":c1_5_0" index="0" speed="15.25" length="2.66" shape="0.00,598.35 0.72,598.45 1.24,598.76 1.55,599.28 1.65,600.00"/>
    </edge>
    <edge id=":c1_6" function="internal">
        <lane id=":c1_6_0" index="0" speed="11.10" length="4.82" shape="0.00,598.35 1.24,599.18 1.65,600.00 1.24,600.83 0.00,601.65"/>
    </edge>
    <edge id=":c1_7" function="internal">
        <lane id=":c1_7_0" index="0" speed="16.67" length="3.30" shape="-4.95,600.00 -1.65,600.00"/>
    </edge>
    <edge id=":c1_8" function="internal">
        <lane id=":c1_8_0" index="0" speed="15.25" length="2.66" shape="-1.65,600.00 -1.55,600.72 -1.24,601.24 -0.72,601.55 0.00,601.65"/>
    </edge>
    <edge id=":c1_9" function="internal">
        <lane id=":c1_9_0" index="0" speed="16.67" length="3.30" shape="-1.65,600.00 -4.95,600.00"/>
    </edge>
    <edge id=":c1_10" function="internal">
        <lane id=":c1_10_0" index="0" speed="16.67" length="2.41" shape="-1.65,600.00 -0.83,598.76 -0.00,598.35"/>
    </edge>
    <edge id=":c1_12" function="internal">
        <lane id=":c1_12_0" index="0" speed="16.67" length="2.41" shape="-0.00,598.35 0.82,598.76 1.65,600.00"/>
    </edge>
    <edge id=":c21_0" function="internal">
        <lane id=":c21_0_0" index="0" speed="11.10" length="4.82" shape="248.35,850.00 249.18,848.76 250.00,848.35 250.82,848.76 251.65,850.00"/>
    </edge>
    <edge id=":c22_0" function="internal">
        <lane id=":c22_0_0" index="0" speed="11.10" length="2.66" shape="251.65,600.00 251.55,599.28 251.24,598.76 250.72,598.45 250.00,598.35"/>
    </edge>
    <edge id=":c22_1" function="internal">
        <lane id=":c22_1_0" index="0" speed="11.10" length="0.10" shape="251.65,600.00 251.65,600.00"/>
    </edge>
    <edge id=":c22_2" function="internal">
        <lane id=":c22_2_0" index="0" speed="11.10" length="2.66" shape="251.65,600.00 251.55,600.72 251.24,601.24 250.72,601.55 250.00,601.65"/>
    </edge>
    <edge id=":c22_3" function="internal">
        <lane id=":c22_3_0" index="0" speed="11.10" length="4.82" shape="251.65,600.00 250.82,601.24 250.00,601.65 249.18,601.24 248.35,600.00"/>
    </edge>
    <edge id=":c22_4" function="internal">
        <lane id=":c22_4_0" index="0" speed="11.10" length="2.66" shape="250.00,598.35 249.28,598.45 248.76,598.76 248.45,599.28 248.35,600.00"/>
    </edge>
    <edge id=":c22_5" function="internal">
        <lane id=":c22_5_0" index="0" speed="11.10" length="0.10" shape="250.00,598.35 250.00,598.35"/>
    </edge>
    <edge id=":c22_6" function="internal">
        <lane id=":c22_6_0" index="0" speed="11.10" length="2.66" shape="250.00,598.35 250.72,598.45 251.24,598.76 251.55,599.28 251.65,600.00"/>
    </edge>
    <edge id=":c22_7" function="internal">
        <lane id=":c22_7_0" index="0" speed="11.10" length="4.82" shape="250.00,598.35 251.24,599.18 251.65,600.00 251.24,600.83 250.00,601.65"/>
    </edge>
    <edge id=":c22_8" function="internal">
        <lane id=":c22_8_0" index="0" speed="11.10" length="2.66" shape="248.35,600.00 248.45,600.72 248.76,601.24 249.28,601.55 250.00,601.65"/>
    </edge>
    <edge id=":c22_9" function="internal">
        <lane id=":c22_9_0" index="0" speed="11.10" length="0.10" shape="248.35,600.00 248.35,600.00"/>
    </edge>
    <edge id=":c22_10" function="internal">
        <lane id=":c22_10_0" index="0" speed="11.10" length="2.66" shape="248.35,600.00 248.45,599.28 248.76,598.76 249.28,598.45 250.00,598.35"/>
    </edge>
    <edge id=":c22_11" function="internal">
        <lane id=":c22_11_0" index="0" speed="11.10" length="4.82" shape="248.35,600.00 249.18,598.76 250.00,598.35 250.82,598.76 251.65,600.00"/>
    </edge>
    <edge id=":c22_12" function="internal">
        <lane id=":c22_12_0" index="0" speed="11.10" length="2.66" shape="250.00,601.65 250.72,601.55 251.24,601.24 251.55,600.72 251.65,600.00"/>
    </edge>
    <edge id=":c22_13" function="internal">
        <lane id=":c22_13_0" index="0" speed="11.10" length="0.10" shape="250.00,601.65 250.00,601.65"/>
    </edge>
    <edge id=":c22_14" function="internal">
        <lane id=":c22_14_0" index="0" speed="11.10" length="2.66" shape="250.00,601.65 249.28,601.55 248.76,601.24 248.45,600.72 248.35,600.00"/>
    </edge>
    <edge id=":c22_15" function="internal">
        <lane id=":c22_15_0" index="0" speed="11.10" length="4.82" shape="250.00,601.65 248.76,600.82 248.35,600.00 248.76,599.17 250.00,598.35"/>
    </edge>
    <edge id=":c23_0" function="internal">
        <lane id=":c23_0_0" index="0" speed="11.10" length="4.82" shape="251.65,350.00 250.82,351.24 250.00,351.65 249.18,351.24 248.35,350.00"/>
    </edge>
    <edge id=":c31_0" function="internal">
        <lane id=":c31_0_0" index="0" speed="11.10" length="4.82" shape="498.35,850.00 499.18,848.76 500.00,848.35 500.82,848.76 501.65,850.00"/>
    </edge>
    <edge id=":c32_0" function="internal">
        <lane id=":c32_0_0" index="0" speed="11.10" length="2.66" shape="501.65,600.00 501.55,599.28 501.24,598.76 500.72,598.45 500.00,598.35"/>
    </edge>
    <edge id=":c32_1" function="internal">
        <lane id=":c32_1_0" index="0" speed="11.10" length="0.10" shape="501.65,600.00 501.65,600.00"/>
    </edge>
    <edge id=":c32_2" function="internal">
        <lane id=":c32_2_0" index="0" speed="11.10" length="2.66" shape="501.65,600.00 501.55,600.72 501.24,601.24 500.72,601.55 500.00,601.65"/>
    </edge>
    <edge id=":c32_3" function="internal">
        <lane id=":c32_3_0" index="0" speed="11.10" length="4.82" shape="501.65,600.00 500.82,601.24 500.00,601.65 499.18,601.24 498.35,600.00"/>
    </edge>
    <edge id=":c32_4" function="internal">
        <lane id=":c32_4_0" index="0" speed="11.10" length="2.66" shape="500.00,598.35 499.28,598.45 498.76,598.76 498.45,599.28 498.35,600.00"/>
    </edge>
    <edge id=":c32_5" function="internal">
        <lane id=":c32_5_0" index="0" speed="11.10" length="0.10" shape="500.00,598.35 500.00,598.35"/>
    </edge>
    <edge id=":c32_6" function="internal">
        <lane id=":c32_6_0" index="0" speed="11.10" length="2.66" shape="500.00,598.35 500.72,598.45 501.24,598.76 501.55,599.28 501.65,600.00"/>
    </edge>
    <edge id=":c32_7" function="internal">
        <lane id=":c32_7_0" index="0" speed="11.10" length="4.82" shape="500.00,598.35 501.24,599.18 501.65,600.00 501.24,600.83 500.00,601.65"/>
    </edge>
    <edge id=":c32_8" function="internal">
        <lane id=":c32_8_0" index="0" speed="11.10" length="2.66" shape="498.35,600.00 498.45,600.72 498.76,601.24 499.28,601.55 500.00,601.65"/>
    </edge>
    <edge id=":c32_9" function="internal">
        <lane id=":c32_9_0" index="0" speed="11.10" length="0.10" shape="498.35,600.00 498.35,600.00"/>
    </edge>
    <edge id=":c32_10" function="internal">
        <lane id=":c32_10_0" index="0" speed="11.10" length="2.66" shape="498.35,600.00 498.45,599.28 498.76,598.76 499.28,598.45 500.00,598.35"/>
    </edge>
    <edge id=":c32_11" function="internal">
        <lane id=":c32_11_0" index="0" speed="11.10" length="4.82" shape="498.35,600.00 499.18,598.76 500.00,598.35 500.82,598.76 501.65,600.00"/>
    </edge>
    <edge id=":c32_12" function="internal">
        <lane id=":c32_12_0" index="0" speed="11.10" length="2.66" shape="500.00,601.65 500.72,601.55 501.24,601.24 501.55,600.72 501.65,600.00"/>
    </edge>
    <edge id=":c32_13" function="internal">
        <lane id=":c32_13_0" index="0" speed="11.10" length="0.10" shape="500.00,601.65 500.00,601.65"/>
    </edge>
    <edge id=":c32_14" function="internal">
        <lane id=":c32_14_0" index="0" speed="11.10" length="2.66" shape="500.00,601.65 499.28,601.55 498.76,601.24 498.45,600.72 498.35,600.00"/>
    </edge>
    <edge id=":c32_15" function="internal">
        <lane id=":c32_15_0" index="0" speed="11.10" length="4.82" shape="500.00,601.65 498.76,600.82 498.35,600.00 498.76,599.17 500.00,598.35"/>
    </edge>
    <edge id=":c33_0" function="internal">
        <lane id=":c33_0_0" index="0" speed="11.10" length="4.82" shape="501.65,350.00 500.82,351.24 500.00,351.65 499.18,351.24 498.35,350.00"/>
    </edge>
    <edge id=":c41_0" function="internal">