<?xml version="1.0" encoding="UTF-8"?>

<!-- generated on 11/19/13 17:02:10 by SUMO netconvert Version 0.18.0
<?xml version="1.0" encoding="UTF-8"?>

<configuration xmlns:xsi="http://www.w3.org/2001/XMLSchema-instance" xsi:noNamespaceSchemaLocation="http://sumo.sf.net/xsd/netconvertConfiguration.xsd">

    <input>
        <node-files value="grid.nod.xml"/>
        <edge-files value="grid.edg.xml"/>
    </input>

    <output>
        <output-file value="grid.net.xml"/>
    </output>

    <processing>
        <no-turnarounds value="true"/>
        <lefthand value="true"/>
    </processing>

</configuration>
-->

<net version="0.13" xmlns:xsi="http://www.w3.org/2001/XMLSchema-instance" xsi:noNamespaceSchemaLocation="http://sumo.sf.net/xsd/net_file.xsd">

    <location netOffset="1000.00,0.00" convBoundary="0.00,0.00,2000.00,2000.00" origBoundary="-1000.00,0.00,1000.00,2000.00" projParameter="!"/>

    <edge id=":11_0" function="internal">
        <lane id=":11_0_0" index="0" speed="13.90" length="0.10" shape="1.65,1.60 1.60,1.65"/>
    </edge>
    <edge id=":11_1" function="internal">
        <lane id=":11_1_0" index="0" speed="13.90" length="2.66" shape="0.00,-1.65 -0.72,-1.55 -1.24,-1.24 -1.55,-0.72 -1.65,0.00"/>
    </edge>
    <edge id=":12_0" function="internal">
        <lane id=":12_0_0" index="0" speed="13.90" length="2.66" shape="1001.65,0.00 1001.55,-0.72 1001.24,-1.24 1000.72,-1.55 1000.00,-1.65"/>
    </edge>
    <edge id=":12_1" function="internal">
        <lane id=":12_1_0" index="0" speed="13.90" length="2.66" shape="1001.65,0.00 1001.55,0.72 1001.24,1.24 1000.72,1.55 1000.00,1.65"/>
    </edge>
    <edge id=":12_2" function="internal">
        <lane id=":12_2_0" index="0" speed="13.90" length="2.66" shape="1000.00,-1.65 999.28,-1.55 998.76,-1.24 998.45,-0.72 998.35,0.00"/>
    </edge>
    <edge id=":12_3" function="internal">
        <lane id=":12_3_0" index="0" speed="13.90" length="0.10" shape="1000.00,-1.65 1000.00,-1.65"/>
    </edge>
    <edge id=":12_4" function="internal">
        <lane id=":12_4_0" index="0" speed="13.90" length="0.10" shape="1000.00,1.65 1000.00,1.65"/>
    </edge>
    <edge id=":12_5" function="internal">
        <lane id=":12_5_0" index="0" speed="13.90" length="2.66" shape="1000.00,1.65 999.28,1.55 998.76,1.24 998.45,0.72 998.35,0.00"/>
    </edge>
    <edge id=":13_0" function="internal">
        <lane id=":13_0_0" index="0" speed="13.90" length="2.66" shape="2001.65,0.00 2001.55,-0.72 2001.24,-1.24 2000.72,-1.55 2000.00,-1.65"/>
    </edge>
    <edge id=":13_1" function="internal">
        <lane id=":13_1_0" index="0" speed="13.90" length="2.66" shape="2000.00,1.65 1999.28,1.55 1998.76,1.24 1998.45,0.72 1998.35,0.00"/>
    </edge>
    <edge id=":21_0" function="internal">
        <lane id=":21_0_0" index="0" speed="13.90" length="0.10" shape="1.65,1000.00 1.65,1000.00"/>
    </edge>
    <edge id=":21_1" function="internal">
        <lane id=":21_1_0" index="0" speed="13.90" length="2.66" shape="1.65,1000.00 1.55,1000.72 1.24,1001.24 0.72,1001.55 0.00,1001.65"/>
    </edge>
    <edge id=":21_2" function="internal">
        <lane id=":21_2_0" index="0" speed="13.90" length="2.66" shape="0.00,998.35 -0.72,998.45 -1.24,998.76 -1.55,999.28 -1.65,1000.00"/>
    </edge>
    <edge id=":21_3" function="internal">
        <lane id=":21_3_0" index="0" speed="13.90" length="2.66" shape="0.00,998.35 0.72,998.45 1.24,998.76 1.55,999.28 1.65,1000.00"/>
    </edge>
    <edge id=":21_4" function="internal">
        <lane id=":21_4_0" index="0" speed="13.90" length="2.66" shape="-1.65,1000.00 -1.55,1000.72 -1.24,1001.24 -0.72,1001.55 0.00,1001.65"/>
    </edge>
    <edge id=":21_5" function="internal">
        <lane id=":21_5_0" index="0" speed="13.90" length="0.10" shape="-1.65,1000.00 -1.65,1000.00"/>
    </edge>
    <edge id=":22_0" function="internal">
        <lane id=":22_0_0" index="0" speed="13.90" length="2.66" shape="1001.65,1000.00 1001.55,999.28 1001.24,998.76 1000.72,998.45 1000.00,998.35"/>
    </edge>
    <edge id=":22_1" function="internal">
        <lane id=":22_1_0" index="0" speed="13.90" length="0.10" shape="1001.65,1000.00 1001.65,1000.00"/>
    </edge>
    <edge id=":22_2" function="internal">
        <lane id=":22_2_0" index="0" speed="13.90" length="2.66" shape="1001.65,1000.00 1001.55,1000.72 1001.24,1001.24 1000.72,1001.55 1000.00,1001.65"/>
    </edge>
    <edge id=":22_3" function="internal">
        <lane id=":22_3_0" index="0" speed="13.90" length="2.66" shape="1000.00,998.35 999.28,998.45 998.76,998.76 998.45,999.28 998.35,1000.00"/>
    </edge>
    <edge id=":22_4" function="internal">
        <lane id=":22_4_0" index="0" speed="13.90" length="0.10" shape="1000.00,998.35 1000.00,998.35"/>
    </edge>
    <edge id=":22_5" function="internal">
        <lane id=":22_5_0" index="0" speed="13.90" length="2.66" shape="1000.00,998.35 1000.72,998.45 1001.24,998.76 1001.55,999.28 1001.65,1000.00"/>
    </edge>
    <edge id=":22_6" function="internal">
        <lane id=":22_6_0" index="0" speed="13.90" length="2.66" shape="998.35,1000.00 998.45,1000.72 998.76,1001.24 999.28,1001.55 1000.00,1001.65"/>
    </edge>
    <edge id=":22_7" function="internal">
        <lane id=":22_7_0" index="0" speed="13.90" length="0.10" shape="998.35,1000.00 998.35,1000.00"/>
    </edge>
    <edge id=":22_8" function="internal">
        <lane id=":22_8_0" index="0" speed="13.90" length="2.66" shape="998.35,1000.00 998.45,999.28 998.76,998.76 999.28,998.45 1000.00,998.35"/>
    </edge>
    <edge id=":22_9" function="internal">
        <lane id=":22_9_0" index="0" speed="13.90" length="2.66" shape="1000.00,1001.65 1000.72,1001.55 1001.24,1001.24 1001.55,1000.72 1001.65,1000.00"/>
    </edge>
    <edge id=":22_10" function="internal">
        <lane id=":22_10_0" index="0" speed="13.90" length="0.10" shape="1000.00,1001.65 1000.00,1001.65"/>
    </edge>
    <edge id=":22_11" function="internal">
        <lane id=":22_11_0" index="0" speed="13.90" length="2.66" shape="1000.00,1001.65 999.28,1001.55 998.76,1001.24 998.45,1000.72 998.35,1000.00"/>
    </edge>
    <edge id=":23_0" function="internal">
        <lane id=":23_0_0" index="0" speed="13.90" length="2.66" shape="2001.65,1000.00 2001.55,999.28 2001.24,998.76 2000.72,998.45 2000.00,998.35"/>
    </edge>
    <edge id=":23_1" function="internal">
        <lane id=":23_1_0" index="0" speed="13.90" length="0.10" shape="2001.65,1000.00 2001.65,1000.00"/>
    </edge>
    <edge id=":23_2" function="internal">
        <lane id=":23_2_0" index="0" speed="13.90" length="0.10" shape="1998.35,1000.00 1998.35,1000.00"/>
    </edge>
    <edge id=":23_3" function="internal">
        <lane id=":23_3_0" index="0" speed="13.90" length="2.66" shape="1998.35,1000.00 1998.45,999.28 1998.76,998.76 1999.28,998.45 2000.00,998.35"/>
    </edge>
    <edge id=":23_4" function="internal">
        <lane id=":23_4_0" index="0" speed="13.90" length="2.66" shape="2000.00,1001.65 2000.72,1001.55 2001.24,1001.24 2001.55,1000.72 2001.65,1000.00"/>
    </edge>
    <edge id=":23_5" function="internal">
        <lane id=":23_5_0" index="0" speed="13.90" length="2.66" shape="2000.00,1001.65 1999.28,1001.55 1998.76,1001.24 1998.45,1000.72 1998.35,1000.00"/>
    </edge>
    <edge id=":31_0" function="internal">
        <lane id=":31_0_0" index="0" speed="13.90" length="0.10" shape="1.60,1998.35 1.65,1998.40"/>
    </edge>
    <edge id=":31_1" function="internal">
        <lane id=":31_1_0" index="0" speed="13.90" length="2.66" shape="-1.65,2000.00 -1.55,2000.72 -1.24,2001.24 -0.72,2001.55 0.00,2001.65"/>
    </edge>
    <edge id=":32_0" function="internal">
        <lane id=":32_0_0" index="0" speed="13.90" length="0.10" shape="1000.00,1998.35 1000.00,1998.35"/>
    </edge>
    <edge id=":32_1" function="internal">
        <lane id=":32_1_0" index="0" speed="13.90" length="2.66" shape="1000.00,1998.35 1000.72,1998.45 1001.24,1998.76 1001.55,1999.28 1001.65,2000.00"/>
    </edge>
    <edge id=":32_2" function="internal">
        <lane id=":32_2_0" index="0" speed="13.90" length="2.66" shape="998.35,2000.00 998.45,2000.72 998.76,2001.24 999.28,2001.55 1000.00,2001.65"/>
    </edge>
    <edge id=":32_3" function="internal">
        <lane id=":32_3_0" index="0" speed="13.90" length="2.66" shape="998.35,2000.00 998.45,1999.28 998.76,1998.76 999.28,1998.45 1000.00,1998.35"/>
    </edge>
    <edge id=":32_4" function="internal">
        <lane id=":32_4_0" index="0" speed="13.90" length="2.66" shape="1000.00,2001.65 1000.72,2001.55 1001.24,2001.24 1001.55,2000.72 1001.65,2000.00"/>
    </edge>
    <edge id=":32_5" function="internal">
        <lane id=":32_5_0" index="0" speed="13.90" length="0.10" shape="1000.00,2001.65 1000.00,2001.65"/>
    </edge>
    <edge id=":33_0" function="internal">
        <lane id=":33_0_0" index="0" speed="13.90" length="2.66" shape="1998.35,2000.00 1998.45,1999.28 1998.76,1998.76 1999.28,1998.45 2000.00,1998.35"/>
    </edge>
    <edge id=":33_1" function="internal">
        <lane id=":33_1_0" index="0" speed="13.90" length="2.66" shape="2000.00,2001.65 2000.72,2001.55 2001.24,2001.24 2001.55,2000.72 2001.65,2000.00"/>
    </edge>

    <edge id="1112" from="11" to="12" priority="-1">
        <lane id="1112_0" index="0" speed="13.90" length="998.40" shape="1.60,1.65 1000.00,1.65"/>
    </edge>
    <edge id="1121" from="11" to="21" priority="-1">
        <lane id="1121_0" index="0" speed="13.90" length="1000.00" shape="-1.65,0.00 -1.65,1000.00"/>
    </edge>
    <edge id="1211" from="12" to="11" priority="-1">
        <lane id="1211_0" index="0" speed="13.90" length="1000.00" shape="1000.00,-1.65 0.00,-1.65"/>
    </edge>
    <edge id="1213" from="12" to="13" priority="-1">
        <lane id="1213_0" index="0" speed="13.90" length="1000.00" shape="1000.00,1.65 2000.00,1.65"/>
    </edge>
    <edge id="1222" from="12" to="22" priority="-1">
        <lane id="1222_0" index="0" speed="13.90" length="1000.00" shape="998.35,0.00 998.35,1000.00"/>
    </edge>
    <edge id="1312" from="13" to="12" priority="-1">
        <lane id="1312_0" index="0" speed="13.90" length="1000.00" shape="2000.00,-1.65 1000.00,-1.65"/>
    </edge>
    <edge id="1323" from="13" to="23" priority="-1">
        <lane id="1323_0" index="0" speed="13.90" length="1000.00" shape="1998.35,0.00 1998.35,1000.00"/>
    </edge>
    <edge id="2111" from="21" to="11" priority="-1">
        <lane id="2111_0" index="0" speed="13.90" length="998.40" shape="1.65,1000.00 1.65,1.60"/>
    </edge>
    <edge id="2122" from="21" to="22" priority="-1">
        <lane id="2122_0" index="0" speed="13.90" length="1000.00" shape="0.00,1001.65 1000.00,1001.65"/>
    </edge>
    <edge id="2131" from="21" to="31" priority="-1">
        <lane id="2131_0" index="0" speed="13.90" length="1000.00" shape="-1.65,1000.00 -1.65,2000.00"/>
    </edge>
    <edge id="2212" from="22" to="12" priority="-1">
        <lane id="2212_0" index="0" speed="13.90" length="1000.00" shape="1001.65,1000.00 1001.65,0.00"/>
    </edge>
    <edge id="2221" from="22" to="21" priority="-1">
        <lane id="2221_0" index="0" speed="13.90" length="1000.00" shape="1000.00,998.35 0.00,998.35"/>
    </edge>
    <edge id="2223" from="22" to="23" priority="-1">
        <lane id="2223_0" index="0" speed="13.90" length="1000.00" shape="1000.00,1001.65 2000.00,1001.65"/>
    </edge>
    <edge id="2232" from="22" to="32" priority="-1">
        <lane id="2232_0" index="0" speed="13.90" length="1000.00" shape="998.35,1000.00 998.35,2000.00"/>
    </edge>
    <edge id="2313" from="23" to="13" priority="-1">
        <lane id="2313_0" index="0" speed="13.90" length="1000.00" shape="2001.65,1000.00 2001.65,0.00"/>
    </edge>
    <edge id="2322" from="23" to="22" priority="-1">
        <lane id="2322_0" index="0" speed="13.90" length="1000.00" shape="2000.00,998.35 1000.00,998.35"/>
    </edge>
    <edge id="2333" from="23" to="33" priority="-1">
        <lane id="2333_0" index="0" speed="13.90" length="1000.00" shape="1998.35,1000.00 1998.35,2000.00"/>
    </edge>
    <edge id="3121" from="31" to="21" priority="-1">
        <lane id="3121_0" index="0" speed="13.90" length="998.40" shape="1.65,1998.40 1.65,1000.00"/>
    </edge>
    <edge id="3132" from="31" to="32" priority="-1">
        <lane id="3132_0" index="0" speed="13.90" length="1000.00" shape="0.00,2001.65 1000.00,2001.65"/>
    </edge>
    <edge id="3222" from="32" to="22" priority="-1">
        <lane id="3222_0" index="0" speed="13.90" length="1000.00" shape="1001.65,2000.00 1001.65,1000.00"/>
    </edge>
    <edge id="3231" from="32" to="31" priority="-1">
        <lane id="3231_0" index="0" speed="13.90" length="998.40" shape="1000.00,1998.35 1.60,1998.35"/>
    </edge>
    <edge id="3233" from="32" to="33" priority="-1">
        <lane id="3233_0" index="0" speed="13.90" length="1000.00" shape="1000.00,2001.65 2000.00,2001.65"/>
    </edge>
    <edge id="3323" from="33" to="23" priority="-1">
        <lane id="3323_0" index="0" speed="13.90" length="1000.00" shape="2001.65,2000.00 2001.65,1000.00"/>
    </edge>
    <edge id="3332" from="33" to="32" priority="-1">
        <lane id="3332_0" index="0" speed="13.90" length="1000.00" shape="2000.00,1998.35 1000.00,1998.35"/>
    </edge>

    <junction id="11" type="priority" x="0.00" y="0.00" incLanes="2111_0 1211_0" intLanes=":11_0_0 :11_1_0" shape="-3.25,0.00 -0.05,0.00 0.05,-0.00 3.25,-0.00 0.00,3.25 0.00,0.05 -0.00,-0.05 -0.00,-3.25">
        <request index="0" response="00" foes="00" cont="0"/>
        <request index="1" response="00" foes="00" cont="0"/>
    </junction>
    <junction id="12" type="priority" x="1000.00" y="0.00" incLanes="2212_0 1312_0 1112_0" intLanes=":12_0_0 :12_1_0 :12_2_0 :12_3_0 :12_4_0 :12_5_0" shape="1000.05,1.45 1001.45,-0.05 1001.45,0.05 998.55,0.05 998.55,-0.05">
        <request index="0" response="011100" foes="011100" cont="0"/>
        <request index="1" response="010000" foes="010000" cont="0"/>
        <request index="2" response="110000" foes="110001" cont="0"/>
        <request index="3" response="000000" foes="000001" cont="0"/>
        <request index="4" response="000000" foes="000111" cont="0"/>
        <request index="5" response="000000" foes="000100" cont="0"/>
    </junction>
    <junction id="13" type="priority" x="2000.00" y="0.00" incLanes="2313_0 1213_0" intLanes=":13_0_0 :13_1_0" shape="2000.05,-0.05 1999.95,-0.05 2000.05,0.05 2000.05,-0.05">
        <request index="0" response="00" foes="00" cont="0"/>
        <request index="1" response="00" foes="00" cont="0"/>
    </junction>
    <junction id="21" type="priority" x="0.00" y="1000.00" incLanes="3121_0 2221_0 1121_0" intLanes=":21_0_0 :21_1_0 :21_2_0 :21_3_0 :21_4_0 :21_5_0" shape="0.05,1001.45 -0.05,1001.45 1.45,999.95 -0.05,998.55 0.05,998.55">
        <request index="0" response="000000" foes="011111" cont="0"/>
        <request index="1" response="000000" foes="010000" cont="0"/>
        <request index="2" response="110001" foes="110001" cont="0"/>
        <request index="3" response="000001" foes="000001" cont="0"/>
        <request index="4" response="000011" foes="000111" cont="0"/>
        <request index="5" response="000000" foes="000100" cont="0"/>
    </junction>
    <junction id="22" type="priority" x="1000.00" y="1000.00" incLanes="3222_0 2322_0 1222_0 2122_0" intLanes=":22_0_0 :22_1_0 :22_2_0 :22_3_0 :22_4_0 :22_5_0 :22_6_0 :22_7_0 :22_8_0 :22_9_0 :22_10_0 :22_11_0" shape="1000.05,1001.45 1001.45,999.95 999.95,998.55 998.55,1000.05">
        <request index="0" response="000110000000" foes="011110011000" cont="0"/>
        <request index="1" response="000000000000" foes="011001111000" cont="0"/>
        <request index="2" response="000000000000" foes="010001000000" cont="0"/>
        <request index="3" response="110011000011" foes="110011000011" cont="0"/>
        <request index="4" response="000111000011" foes="001111000011" cont="0"/>
        <request index="5" response="000000000010" foes="001000000010" cont="0"/>
        <request index="6" response="000000000110" foes="011000011110" cont="0"/>
        <request index="7" response="000000000000" foes="111000011001" cont="0"/>
        <request index="8" response="000000000000" foes="000000010001" cont="0"/>
        <request index="9" response="000011110011" foes="000011110011" cont="0"/>
        <request index="10" response="000011000111" foes="000011001111" cont="0"/>
        <request index="11" response="000010000000" foes="000010001000" cont="0"/>
    </junction>
    <junction id="23" type="priority" x="2000.00" y="1000.00" incLanes="3323_0 1323_0 2223_0" intLanes=":23_0_0 :23_1_0 :23_2_0 :23_3_0 :23_4_0 :23_5_0" shape="2000.05,1001.45 1999.95,1001.45 1999.95,998.55 2000.05,998.55 1998.55,1000.05">
        <request index="0" response="001100" foes="011100" cont="0"/>
        <request index="1" response="000000" foes="010000" cont="0"/>
        <request index="2" response="000000" foes="110001" cont="0"/>
        <request index="3" response="000000" foes="000001" cont="0"/>
        <request index="4" response="000111" foes="000111" cont="0"/>
        <request index="5" response="000100" foes="000100" cont="0"/>
    </junction>
    <junction id="31" type="priority" x="0.00" y="2000.00" incLanes="3231_0 2131_0" intLanes=":31_0_0 :31_1_0" shape="0.00,2003.25 0.00,2000.05 -0.00,1999.95 -0.00,1996.75 3.25,2000.00 0.05,2000.00 -0.05,2000.00 -3.25,2000.00">
        <request index="0" response="00" foes="00" cont="0"/>
        <request index="1" response="00" foes="00" cont="0"/>
    </junction>
    <junction id="32" type="priority" x="1000.00" y="2000.00" incLanes="3332_0 2232_0 3132_0" intLanes=":32_0_0 :32_1_0 :32_2_0 :32_3_0 :32_4_0 :32_5_0" shape="1001.45,1999.95 1001.45,2000.05 999.95,1998.55 998.55,2000.05 998.55,1999.95">
        <request index="0" response="000000" foes="011100" cont="0"/>
        <request index="1" response="000000" foes="010000" cont="0"/>
        <request index="2" response="110001" foes="110001" cont="0"/>
        <request index="3" response="000001" foes="000001" cont="0"/>
        <request index="4" response="000011" foes="000111" cont="0"/>
        <request index="5" response="000000" foes="000100" cont="0"/>
    </junction>
    <junction id="33" type="priority" x="2000.00" y="2000.00" incLanes="2333_0 3233_0" intLanes=":33_0_0 :33_1_0" shape="1999.95,2000.05 2000.05,2000.05 2000.05,1999.95">
        <request index="0" response="00" foes="00" cont="0"/>
        <request index="1" response="00" foes="00" cont="0"/>
    </junction>

    <connection from="1112" to="1213" fromLane="0" toLane="0" via=":12_4_0" dir="s" state="M"/>
    <connection from="1112" to="1222" fromLane="0" toLane="0" via=":12_5_0" dir="L" state="M"/>
    <connection from="1121" to="2122" fromLane="0" toLane="0" via=":21_4_0" dir="r" state="m"/>
    <connection from="1121" to="2131" fromLane="0" toLane="0" via=":21_5_0" dir="s" state="M"/>
    <connection from="1211" to="1121" fromLane="0" toLane="0" via=":11_1_0" dir="r" state="M"/>
    <connection from="1213" to="1323" fromLane="0" toLane="0" via=":13_1_0" dir="L" state="M"/>
    <connection from="1222" to="2223" fromLane="0" toLane="0" via=":22_6_0" dir="R" state="m"/>
    <connection from="1222" to="2232" fromLane="0" toLane="0" via=":22_7_0" dir="s" state="M"/>
    <connection from="1222" to="2221" fromLane="0" toLane="0" via=":22_8_0" dir="l" state="M"/>
    <connection from="1312" to="1222" fromLane="0" toLane="0" via=":12_2_0" dir="R" state="m"/>
    <connection from="1312" to="1211" fromLane="0" toLane="0" via=":12_3_0" dir="s" state="M"/>
    <connection from="1323" to="2333" fromLane="0" toLane="0" via=":23_2_0" dir="s" state="M"/>
    <connection from="1323" to="2322" fromLane="0" toLane="0" via=":23_3_0" dir="l" state="M"/>
    <connection from="2111" to="1112" fromLane="0" toLane="0" via=":11_0_0" dir="l" state="M"/>
    <connection from="2122" to="2212" fromLane="0" toLane="0" via=":22_9_0" dir="R" state="m"/>
    <connection from="2122" to="2223" fromLane="0" toLane="0" via=":22_10_0" dir="s" state="m"/>
    <connection from="2122" to="2232" fromLane="0" toLane="0" via=":22_11_0" dir="l" state="m"/>
    <connection from="2131" to="3132" fromLane="0" toLane="0" via=":31_1_0" dir="R" state="M"/>
    <connection from="2212" to="1211" fromLane="0" toLane="0" via=":12_0_0" dir="R" state="m"/>
    <connection from="2212" to="1213" fromLane="0" toLane="0" via=":12_1_0" dir="l" state="m"/>
    <connection from="2221" to="2131" fromLane="0" toLane="0" via=":21_2_0" dir="R" state="m"/>
    <connection from="2221" to="2111" fromLane="0" toLane="0" via=":21_3_0" dir="l" state="m"/>
    <connection from="2223" to="2313" fromLane="0" toLane="0" via=":23_4_0" dir="R" state="m"/>
    <connection from="2223" to="2333" fromLane="0" toLane="0" via=":23_5_0" dir="l" state="m"/>
    <connection from="2232" to="3233" fromLane="0" toLane="0" via=":32_2_0" dir="R" state="m"/>
    <connection from="2232" to="3231" fromLane="0" toLane="0" via=":32_3_0" dir="l" state="m"/>
    <connection from="2313" to="1312" fromLane="0" toLane="0" via=":13_0_0" dir="R" state="M"/>
    <connection from="2322" to="2232" fromLane="0" toLane="0" via=":22_3_0" dir="R" state="m"/>
    <connection from="2322" to="2221" fromLane="0" toLane="0" via=":22_4_0" dir="s" state="m"/>
    <connection from="2322" to="2212" fromLane="0" toLane="0" via=":22_5_0" dir="l" state="m"/>
    <connection from="2333" to="3332" fromLane="0" toLane="0" via=":33_0_0" dir="l" state="M"/>
    <connection from="3121" to="2111" fromLane="0" toLane="0" via=":21_0_0" dir="s" state="M"/>
    <connection from="3121" to="2122" fromLane="0" toLane="0" via=":21_1_0" dir="l" state="M"/>
    <connection from="3132" to="3222" fromLane="0" toLane="0" via=":32_4_0" dir="R" state="m"/>
    <connection from="3132" to="3233" fromLane="0" toLane="0" via=":32_5_0" dir="s" state="M"/>
    <connection from="3222" to="2221" fromLane="0" toLane="0" via=":22_0_0" dir="R" state="m"/>
    <connection from="3222" to="2212" fromLane="0" toLane="0" via=":22_1_0" dir="s" state="M"/>
    <connection from="3222" to="2223" fromLane="0" toLane="0" via=":22_2_0" dir="l" state="M"/>
    <connection from="3231" to="3121" fromLane="0" toLane="0" via=":31_0_0" dir="l" state="M"/>
    <connection from="3233" to="3323" fromLane="0" toLane="0" via=":33_1_0" dir="R" state="M"/>
    <connection from="3323" to="2322" fromLane="0" toLane="0" via=":23_0_0" dir="R" state="m"/>
    <connection from="3323" to="2313" fromLane="0" toLane="0" via=":23_1_0" dir="s" state="M"/>
    <connection from="3332" to="3231" fromLane="0" toLane="0" via=":32_0_0" dir="s" state="M"/>
    <connection from="3332" to="3222" fromLane="0" toLane="0" via=":32_1_0" dir="l" state="M"/>

    <connection from=":11_0" to="1112" fromLane="0" toLane="0" dir="s" state="M"/>
    <connection from=":11_1" to="1121" fromLane="0" toLane="0" dir="s" state="M"/>
    <connection from=":12_0" to="1211" fromLane="0" toLane="0" dir="s" state="M"/>
    <connection from=":12_1" to="1213" fromLane="0" toLane="0" dir="s" state="M"/>
    <connection from=":12_2" to="1222" fromLane="0" toLane="0" dir="s" state="M"/>
    <connection from=":12_3" to="1211" fromLane="0" toLane="0" dir="s" state="M"/>
    <connection from=":12_4" to="1213" fromLane="0" toLane="0" dir="s" state="M"/>
    <connection from=":12_5" to="1222" fromLane="0" toLane="0" dir="s" state="M"/>
    <connection from=":13_0" to="1312" fromLane="0" toLane="0" dir="s" state="M"/>
    <connection from=":13_1" to="1323" fromLane="0" toLane="0" dir="s" state="M"/>
    <connection from=":21_0" to="2111" fromLane="0" toLane="0" dir="s" state="M"/>
    <connection from=":21_1" to="2122" fromLane="0" toLane="0" dir="s" state="M"/>
    <connection from=":21_2" to="2131" fromLane="0" toLane="0" dir="s" state="M"/>
    <connection from=":21_3" to="2111" fromLane="0" toLane="0" dir="s" state="M"/>
    <connection from=":21_4" to="2122" fromLane="0" toLane="0" dir="s" state="M"/>
    <connection from=":21_5" to="2131" fromLane="0" toLane="0" dir="s" state="M"/>
    <connection from=":22_0" to="2221" fromLane="0" toLane="0" dir="s" state="M"/>
    <connection from=":22_1" to="2212" fromLane="0" toLane="0" dir="s" state="M"/>
    <connection from=":22_2" to="2223" fromLane="0" toLane="0" dir="s" state="M"/>
    <connection from=":22_3" to="2232" fromLane="0" toLane="0" dir="s" state="M"/>
    <connection from=":22_4" to="2221" fromLane="0" toLane="0" dir="s" state="M"/>
    <connection from=":22_5" to="2212" fromLane="0" toLane="0" dir="s" state="M"/>
    <connection from=":22_6" to="2223" fromLane="0" toLane="0" dir="s" state="M"/>
    <connection from=":22_7" to="2232" fromLane="0" toLane="0" dir="s" state="M"/>
    <connection from=":22_8" to="2221" fromLane="0" toLane="0" dir="s" state="M"/>
    <connection from=":22_9" to="2212" fromLane="0" toLane="0" dir="s" state="M"/>
    <connection from=":22_10" to="2223" fromLane="0" toLane="0" dir="s" state="M"/>
    <connection from=":22_11" to="2232" fromLane="0" toLane="0" dir="s" state="M"/>
    <connection from=":23_0" to="2322" fromLane="0" toLane="0" dir="s" state="M"/>
    <connection from=":23_1" to="2313" fromLane="0" toLane="0" dir="s" state="M"/>
    <connection from=":23_2" to="2333" fromLane="0" toLane="0" dir="s" state="M"/>
    <connection from=":23_3" to="2322" fromLane="0" toLane="0" dir="s" state="M"/>
    <connection from=":23_4" to="2313" fromLane="0" toLane="0" dir="s" state="M"/>
    <connection from=":23_5" to="2333" fromLane="0" toLane="0" dir="s" state="M"/>
    <connection from=":31_0" to="3121" fromLane="0" toLane="0" dir="s" state="M"/>
    <connection from=":31_1" to="3132" fromLane="0" toLane="0" dir="s" state="M"/>
    <connection from=":32_0" to="3231" fromLane="0" toLane="0" dir="s" state="M"/>
    <connection from=":32_1" to="3222" fromLane="0" toLane="0" dir="s" state="M"/>
    <connection from=":32_2" to="3233" fromLane="0" toLane="0" dir="s" state="M"/>
    <connection from=":32_3" to="3231" fromLane="0" toLane="0" dir="s" state="M"/>
    <connection from=":32_4" to="3222" fromLane="0" toLane="0" dir="s" state="M"/>
    <connection from=":32_5" to="3233" fromLane="0" toLane="0" dir="s" state="M"/>
    <connection from=":33_0" to="3332" fromLane="0" toLane="0" dir="s" state="M"/>
    <connection from=":33_1" to="3323" fromLane="0" toLane="0" dir="s" state="M"/>

</net>
