<?xml version="1.0" encoding="UTF-8"?>

<!-- generated on 12/06/13 14:04:35 by SUMO netconvert Version 0.18.0
<?xml version="1.0" encoding="UTF-8"?>

<configuration xmlns:xsi="http://www.w3.org/2001/XMLSchema-instance" xsi:noNamespaceSchemaLocation="http://sumo.sf.net/xsd/netconvertConfiguration.xsd">

    <input>
        <node-files value="grid.nod.xml"/>
        <edge-files value="grid.edg.xml"/>
    </input>

    <output>
        <output-file value="grid-t.net.xml"/>
    </output>

    <processing>
        <lefthand value="true"/>
    </processing>

</configuration>
-->

<net version="0.13" xmlns:xsi="http://www.w3.org/2001/XMLSchema-instance" xsi:noNamespaceSchemaLocation="http://sumo.sf.net/xsd/net_file.xsd">

    <location netOffset="1000.00,100.00" convBoundary="0.00,0.00,2000.00,2100.00" origBoundary="-1000.00,-100.00,1000.00,2000.00" projParameter="!"/>

    <edge id=":11_0" function="internal">
        <lane id=":11_0_0" index="0" speed="16.70" length="3.30" shape="4.95,100.00 1.65,100.00"/>
    </edge>
    <edge id=":11_1" function="internal">
        <lane id=":11_1_0" index="0" speed="16.70" length="5.59" shape="4.95,100.00 4.64,100.72 3.71,101.24 2.17,101.55 0.00,101.65"/>
    </edge>
    <edge id=":11_2" function="internal">
        <lane id=":11_2_0" index="0" speed="16.70" length="3.30" shape="1.65,100.00 4.95,100.00"/>
    </edge>
    <edge id=":11_3" function="internal">
        <lane id=":11_3_0" index="0" speed="16.70" length="2.41" shape="1.65,100.00 0.83,101.24 0.00,101.65"/>
    </edge>
    <edge id=":11_11" function="internal">
        <lane id=":11_11_0" index="0" speed="16.70" length="2.41" shape="0.00,101.65 -0.82,101.24 -1.65,100.00"/>
    </edge>
    <edge id=":11_4" function="internal">
        <lane id=":11_4_0" index="0" speed="16.70" length="5.59" shape="0.00,95.05 0.72,95.36 1.24,96.29 1.55,97.83 1.65,100.00"/>
    </edge>
    <edge id=":11_5" function="internal">
        <lane id=":11_5_0" index="0" speed="16.70" length="5.59" shape="0.00,98.35 -2.17,98.45 -3.71,98.76 -4.64,99.28 -4.95,100.00"/>
    </edge>
    <edge id=":11_6" function="internal">
        <lane id=":11_6_0" index="0" speed="16.70" length="4.82" shape="0.00,98.35 1.24,99.18 1.65,100.00 1.24,100.83 0.00,101.65"/>
    </edge>
    <edge id=":11_7" function="internal">
        <lane id=":11_7_0" index="0" speed="16.70" length="3.30" shape="-4.95,100.00 -1.65,100.00"/>
    </edge>
    <edge id=":11_8" function="internal">
        <lane id=":11_8_0" index="0" speed="16.70" length="5.59" shape="-1.65,100.00 -1.55,102.17 -1.24,103.71 -0.72,104.64 0.00,104.95"/>
    </edge>
    <edge id=":11_9" function="internal">
        <lane id=":11_9_0" index="0" speed="16.70" length="3.30" shape="-1.65,100.00 -4.95,100.00"/>
    </edge>
    <edge id=":11_10" function="internal">
        <lane id=":11_10_0" index="0" speed="16.70" length="2.41" shape="-1.65,100.00 -0.83,98.76 -0.00,98.35"/>
    </edge>
    <edge id=":11_12" function="internal">
        <lane id=":11_12_0" index="0" speed="16.70" length="2.41" shape="-0.00,98.35 0.82,98.76 1.65,100.00"/>
    </edge>
    <edge id=":12_0" function="internal">
        <lane id=":12_0_0" index="0" speed="16.70" length="5.59" shape="1004.95,100.00 1004.64,100.72 1003.71,101.24 1002.17,101.55 1000.00,101.65"/>
    </edge>
    <edge id=":12_1" function="internal">
        <lane id=":12_1_0" index="0" speed="16.70" length="5.59" shape="1001.65,100.00 1001.55,97.83 1001.24,96.29 1000.72,95.36 1000.00,95.05"/>
    </edge>
    <edge id=":12_2" function="internal">
        <lane id=":12_2_0" index="0" speed="16.70" length="4.82" shape="1001.65,100.00 1000.83,101.24 1000.00,101.65 999.17,101.24 998.35,100.00"/>
    </edge>
    <edge id=":12_3" function="internal">
        <lane id=":12_3_0" index="0" speed="16.70" length="3.30" shape="1000.00,95.05 1000.00,98.35"/>
    </edge>
    <edge id=":12_4" function="internal">
        <lane id=":12_4_0" index="0" speed="16.70" length="5.59" shape="1000.00,98.35 997.83,98.45 996.29,98.76 995.36,99.28 995.05,100.00"/>
    </edge>
    <edge id=":12_5" function="internal">
        <lane id=":12_5_0" index="0" speed="16.70" length="3.30" shape="1000.00,98.35 1000.00,95.05"/>
    </edge>
    <edge id=":12_6" function="internal">
        <lane id=":12_6_0" index="0" speed="16.70" length="2.41" shape="1000.00,98.35 1001.24,99.18 1001.65,100.00"/>
    </edge>
    <edge id=":12_11" function="internal">
        <lane id=":12_11_0" index="0" speed="16.70" length="2.41" shape="1001.65,100.00 1001.24,100.83 1000.00,101.65"/>
    </edge>
    <edge id=":12_7" function="internal">
        <lane id=":12_7_0" index="0" speed="16.70" length="3.30" shape="1000.00,104.95 1000.00,101.65"/>
    </edge>
    <edge id=":12_8" function="internal">
        <lane id=":12_8_0" index="0" speed="16.70" length="5.59" shape="1000.00,104.95 999.28,104.64 998.76,103.71 998.45,102.17 998.35,100.00"/>
    </edge>
    <edge id=":12_9" function="internal">
        <lane id=":12_9_0" index="0" speed="16.70" length="3.30" shape="1000.00,101.65 1000.00,104.95"/>
    </edge>
    <edge id=":12_10" function="internal">
        <lane id=":12_10_0" index="0" speed="16.70" length="2.41" shape="1000.00,101.65 998.76,100.82 998.35,100.00"/>
    </edge>
    <edge id=":12_12" function="internal">
        <lane id=":12_12_0" index="0" speed="16.70" length="2.41" shape="998.35,100.00 998.76,99.17 1000.00,98.35"/>
    </edge>
    <edge id=":13_0" function="internal">
        <lane id=":13_0_0" index="0" speed="16.70" length="5.59" shape="2004.95,100.00 2004.64,99.28 2003.71,98.76 2002.17,98.45 2000.00,98.35"/>
    </edge>
    <edge id=":13_1" function="internal">
        <lane id=":13_1_0" index="0" speed="16.70" length="5.59" shape="2001.65,100.00 2001.55,97.83 2001.24,96.29 2000.72,95.36 2000.00,95.05"/>
    </edge>
    <edge id=":13_2" function="internal">
        <lane id=":13_2_0" index="0" speed="16.70" length="2.41" shape="2001.65,100.00 2000.83,101.24 2000.00,101.65"/>
    </edge>
    <edge id=":13_6" function="internal">
        <lane id=":13_6_0" index="0" speed="16.70" length="2.41" shape="2000.00,101.65 1999.17,101.24 1998.35,100.00"/>
    </edge>
    <edge id=":13_3" function="internal">
        <lane id=":13_3_0" index="0" speed="16.70" length="5.59" shape="2000.00,104.95 1999.28,104.64 1998.76,103.71 1998.45,102.17 1998.35,100.00"/>
    </edge>
    <edge id=":13_4" function="internal">
        <lane id=":13_4_0" index="0" speed="16.70" length="5.59" shape="2000.00,101.65 1997.83,101.55 1996.29,101.24 1995.36,100.72 1995.05,100.00"/>
    </edge>
    <edge id=":13_5" function="internal">
        <lane id=":13_5_0" index="0" speed="16.70" length="2.41" shape="2000.00,101.65 1998.76,100.82 1998.35,100.00"/>
    </edge>
    <edge id=":13_7" function="internal">
        <lane id=":13_7_0" index="0" speed="16.70" length="2.41" shape="1998.35,100.00 1998.76,99.17 2000.00,98.35"/>
    </edge>
    <edge id=":21_0" function="internal">
        <lane id=":21_0_0" index="0" speed="16.70" length="3.30" shape="4.95,1100.00 1.65,1100.00"/>
    </edge>
    <edge id=":21_1" function="internal">
        <lane id=":21_1_0" index="0" speed="16.70" length="5.59" shape="4.95,1100.00 4.64,1100.72 3.71,1101.24 2.17,1101.55 0.00,1101.65"/>
    </edge>
    <edge id=":21_2" function="internal">
        <lane id=":21_2_0" index="0" speed="16.70" length="3.30" shape="1.65,1100.00 4.95,1100.00"/>
    </edge>
    <edge id=":21_3" function="internal">
        <lane id=":21_3_0" index="0" speed="16.70" length="2.41" shape="1.65,1100.00 0.83,1101.24 0.00,1101.65"/>
    </edge>
    <edge id=":21_11" function="internal">
        <lane id=":21_11_0" index="0" speed="16.70" length="2.41" shape="0.00,1101.65 -0.82,1101.24 -1.65,1100.00"/>
    </edge>
    <edge id=":21_4" function="internal">
        <lane id=":21_4_0" index="0" speed="16.70" length="5.59" shape="0.00,1095.05 0.72,1095.36 1.24,1096.29 1.55,1097.83 1.65,1100.00"/>
    </edge>
    <edge id=":21_5" function="internal">
        <lane id=":21_5_0" index="0" speed="16.70" length="5.59" shape="0.00,1098.35 -2.17,1098.45 -3.71,1098.76 -4.64,1099.28 -4.95,1100.00"/>
    </edge>
    <edge id=":21_6" function="internal">
        <lane id=":21_6_0" index="0" speed="16.70" length="4.82" shape="0.00,1098.35 1.24,1099.18 1.65,1100.00 1.24,1100.83 0.00,1101.65"/>
    </edge>
    <edge id=":21_7" function="internal">
        <lane id=":21_7_0" index="0" speed="16.70" length="3.30" shape="-4.95,1100.00 -1.65,1100.00"/>
    </edge>
    <edge id=":21_8" function="internal">
        <lane id=":21_8_0" index="0" speed="16.70" length="5.59" shape="-1.65,1100.00 -1.55,1102.17 -1.24,1103.71 -0.72,1104.64 0.00,1104.95"/>
    </edge>
    <edge id=":21_9" function="internal">
        <lane id=":21_9_0" index="0" speed="16.70" length="3.30" shape="-1.65,1100.00 -4.95,1100.00"/>
    </edge>
    <edge id=":21_10" function="internal">
        <lane id=":21_10_0" index="0" speed="16.70" length="2.41" shape="-1.65,1100.00 -0.83,1098.76 -0.00,1098.35"/>
    </edge>
    <edge id=":21_12" function="internal">
        <lane id=":21_12_0" index="0" speed="16.70" length="2.41" shape="-0.00,1098.35 0.82,1098.76 1.65,1100.00"/>
    </edge>
    <edge id=":22_0" function="internal">
        <lane id=":22_0_0" index="0" speed="16.70" length="3.30" shape="1004.95,1100.00 1001.65,1100.00"/>
    </edge>
    <edge id=":22_1" function="internal">
        <lane id=":22_1_0" index="0" speed="16.70" length="5.59" shape="1004.95,1100.00 1004.64,1100.72 1003.71,1101.24 1002.17,1101.55 1000.00,1101.65"/>
    </edge>
    <edge id=":22_2" function="internal">
        <lane id=":22_2_0" index="0" speed="16.70" length="5.59" shape="1001.65,1100.00 1001.55,1097.83 1001.24,1096.29 1000.72,1095.36 1000.00,1095.05"/>
    </edge>
    <edge id=":22_3" function="internal">
        <lane id=":22_3_0" index="0" speed="16.70" length="3.30" shape="1001.65,1100.00 1004.95,1100.00"/>
    </edge>
    <edge id=":22_4" function="internal">
        <lane id=":22_4_0" index="0" speed="16.70" length="2.41" shape="1001.65,1100.00 1000.83,1101.24 1000.00,1101.65"/>
    </edge>
    <edge id=":22_18" function="internal">
        <lane id=":22_18_0" index="0" speed="16.70" length="2.41" shape="1000.00,1101.65 999.17,1101.24 998.35,1100.00"/>
    </edge>
    <edge id=":22_5" function="internal">
        <lane id=":22_5_0" index="0" speed="16.70" length="3.30" shape="1000.00,1095.05 1000.00,1098.35"/>
    </edge>
    <edge id=":22_6" function="internal">
        <lane id=":22_6_0" index="0" speed="16.70" length="5.59" shape="1000.00,1095.05 1000.72,1095.36 1001.24,1096.29 1001.55,1097.83 1001.65,1100.00"/>
    </edge>
    <edge id=":22_7" function="internal">
        <lane id=":22_7_0" index="0" speed="16.70" length="5.59" shape="1000.00,1098.35 997.83,1098.45 996.29,1098.76 995.36,1099.28 995.05,1100.00"/>
    </edge>
    <edge id=":22_8" function="internal">
        <lane id=":22_8_0" index="0" speed="16.70" length="4.82" shape="1000.00,1098.35 1001.24,1099.18 1001.65,1100.00 1001.24,1100.83 1000.00,1101.65"/>
    </edge>
    <edge id=":22_9" function="internal">
        <lane id=":22_9_0" index="0" speed="16.70" length="3.30" shape="995.05,1100.00 998.35,1100.00"/>
    </edge>
    <edge id=":22_10" function="internal">
        <lane id=":22_10_0" index="0" speed="16.70" length="5.59" shape="995.05,1100.00 995.36,1099.28 996.29,1098.76 997.83,1098.45 1000.00,1098.35"/>
    </edge>
    <edge id=":22_11" function="internal">
        <lane id=":22_11_0" index="0" speed="16.70" length="5.59" shape="998.35,1100.00 998.45,1102.17 998.76,1103.71 999.28,1104.64 1000.00,1104.95"/>
    </edge>
    <edge id=":22_12" function="internal">
        <lane id=":22_12_0" index="0" speed="16.70" length="3.30" shape="998.35,1100.00 995.05,1100.00"/>
    </edge>
    <edge id=":22_13" function="internal">
        <lane id=":22_13_0" index="0" speed="16.70" length="2.41" shape="998.35,1100.00 999.17,1098.76 1000.00,1098.35"/>
    </edge>
    <edge id=":22_19" function="internal">
        <lane id=":22_19_0" index="0" speed="16.70" length="2.41" shape="1000.00,1098.35 1000.83,1098.76 1001.65,1100.00"/>
    </edge>
    <edge id=":22_14" function="internal">
        <lane id=":22_14_0" index="0" speed="16.70" length="3.30" shape="1000.00,1104.95 1000.00,1101.65"/>
    </edge>
    <edge id=":22_15" function="internal">
        <lane id=":22_15_0" index="0" speed="16.70" length="5.59" shape="1000.00,1104.95 999.28,1104.64 998.76,1103.71 998.45,1102.17 998.35,1100.00"/>
    </edge>
    <edge id=":22_16" function="internal">
        <lane id=":22_16_0" index="0" speed="16.70" length="5.59" shape="1000.00,1101.65 1002.17,1101.55 1003.71,1101.24 1004.64,1100.72 1004.95,1100.00"/>
    </edge>
    <edge id=":22_17" function="internal">
        <lane id=":22_17_0" index="0" speed="16.70" length="4.82" shape="1000.00,1101.65 998.76,1100.82 998.35,1100.00 998.76,1099.18 1000.00,1098.35"/>
    </edge>
    <edge id=":23_0" function="internal">
        <lane id=":23_0_0" index="0" speed="16.70" length="3.30" shape="2004.95,1100.00 2001.65,1100.00"/>
    </edge>
    <edge id=":23_1" function="internal">
        <lane id=":23_1_0" index="0" speed="16.70" length="5.59" shape="2001.65,1100.00 2001.55,1097.83 2001.24,1096.29 2000.72,1095.36 2000.00,1095.05"/>
    </edge>
    <edge id=":23_2" function="internal">
        <lane id=":23_2_0" index="0" speed="16.70" length="3.30" shape="2001.65,1100.00 2004.95,1100.00"/>
    </edge>
    <edge id=":23_3" function="internal">
        <lane id=":23_3_0" index="0" speed="16.70" length="2.41" shape="2001.65,1100.00 2000.83,1101.24 2000.00,1101.65"/>
    </edge>
    <edge id=":23_11" function="internal">
        <lane id=":23_11_0" index="0" speed="16.70" length="2.41" shape="2000.00,1101.65 1999.17,1101.24 1998.35,1100.00"/>
    </edge>
    <edge id=":23_4" function="internal">
        <lane id=":23_4_0" index="0" speed="16.70" length="3.30" shape="1995.05,1100.00 1998.35,1100.00"/>
    </edge>
    <edge id=":23_5" function="internal">
        <lane id=":23_5_0" index="0" speed="16.70" length="5.59" shape="1995.05,1100.00 1995.36,1099.28 1996.29,1098.76 1997.83,1098.45 2000.00,1098.35"/>
    </edge>
    <edge id=":23_6" function="internal">
        <lane id=":23_6_0" index="0" speed="16.70" length="3.30" shape="1998.35,1100.00 1995.05,1100.00"/>
    </edge>
    <edge id=":23_7" function="internal">
        <lane id=":23_7_0" index="0" speed="16.70" length="2.41" shape="1998.35,1100.00 1999.18,1098.76 2000.00,1098.35"/>
    </edge>
    <edge id=":23_12" function="internal">
        <lane id=":23_12_0" index="0" speed="16.70" length="2.41" shape="2000.00,1098.35 2000.83,1098.76 2001.65,1100.00"/>
    </edge>
    <edge id=":23_8" function="internal">
        <lane id=":23_8_0" index="0" speed="16.70" length="5.59" shape="2000.00,1104.95 1999.28,1104.64 1998.76,1103.71 1998.45,1102.17 1998.35,1100.00"/>
    </edge>
    <edge id=":23_9" function="internal">
        <lane id=":23_9_0" index="0" speed="16.70" length="5.59" shape="2000.00,1101.65 2002.17,1101.55 2003.71,1101.24 2004.64,1100.72 2004.95,1100.00"/>
    </edge>
    <edge id=":23_10" function="internal">
        <lane id=":23_10_0" index="0" speed="16.70" length="4.82" shape="2000.00,1101.65 1998.76,1100.82 1998.35,1100.00 1998.76,1099.18 2000.00,1098.35"/>
    </edge>
    <edge id=":31_0" function="internal">
        <lane id=":31_0_0" index="0" speed="16.70" length="0.10" shape="1.60,2095.05 1.65,2095.10"/>
    </edge>
    <edge id=":31_1" function="internal">
        <lane id=":31_1_0" index="0" speed="16.70" length="0.10" shape="4.90,2098.35 4.95,2098.40"/>
    </edge>
    <edge id=":31_2" function="internal">
        <lane id=":31_2_0" index="0" speed="16.70" length="4.31" shape="4.90,2098.35 4.91,2101.01 4.10,2102.45"/>
    </edge>
    <edge id=":31_6" function="internal">
        <lane id=":31_6_0" index="0" speed="16.70" length="4.31" shape="4.10,2102.45 2.46,2102.66 0.00,2101.65"/>
    </edge>
    <edge id=":31_3" function="internal">
        <lane id=":31_3_0" index="0" speed="16.70" length="5.59" shape="-4.95,2100.00 -4.64,2100.72 -3.71,2101.24 -2.17,2101.55 0.00,2101.65"/>
    </edge>
    <edge id=":31_4" function="internal">
        <lane id=":31_4_0" index="0" speed="16.70" length="5.59" shape="-1.65,2100.00 -1.55,2102.17 -1.24,2103.71 -0.72,2104.64 0.00,2104.95"/>
    </edge>
    <edge id=":31_5" function="internal">
        <lane id=":31_5_0" index="0" speed="16.70" length="4.31" shape="-1.65,2100.00 -2.66,2097.54 -2.45,2095.90"/>
    </edge>
    <edge id=":31_7" function="internal">
        <lane id=":31_7_0" index="0" speed="16.70" length="4.31" shape="-2.45,2095.90 -1.01,2095.09 1.65,2095.10"/>
    </edge>
    <edge id=":32_0" function="internal">
        <lane id=":32_0_0" index="0" speed="16.70" length="3.30" shape="1000.00,2095.05 1000.00,2098.35"/>
    </edge>
    <edge id=":32_1" function="internal">
        <lane id=":32_1_0" index="0" speed="16.70" length="5.59" shape="1000.00,2095.05 1000.72,2095.36 1001.24,2096.29 1001.55,2097.83 1001.65,2100.00"/>
    </edge>
    <edge id=":32_2" function="internal">
        <lane id=":32_2_0" index="0" speed="16.70" length="3.30" shape="1000.00,2098.35 1000.00,2095.05"/>
    </edge>
    <edge id=":32_3" function="internal">
        <lane id=":32_3_0" index="0" speed="16.70" length="2.41" shape="1000.00,2098.35 1001.24,2099.17 1001.65,2100.00"/>
    </edge>
    <edge id=":32_11" function="internal">
        <lane id=":32_11_0" index="0" speed="16.70" length="2.41" shape="1001.65,2100.00 1001.24,2100.83 1000.00,2101.65"/>
    </edge>
    <edge id=":32_4" function="internal">
        <lane id=":32_4_0" index="0" speed="16.70" length="5.59" shape="995.05,2100.00 995.36,2099.28 996.29,2098.76 997.83,2098.45 1000.00,2098.35"/>
    </edge>
    <edge id=":32_5" function="internal">
        <lane id=":32_5_0" index="0" speed="16.70" length="5.59" shape="998.35,2100.00 998.45,2102.17 998.76,2103.71 999.28,2104.64 1000.00,2104.95"/>
    </edge>
    <edge id=":32_6" function="internal">
        <lane id=":32_6_0" index="0" speed="16.70" length="4.82" shape="998.35,2100.00 999.17,2098.76 1000.00,2098.35 1000.83,2098.76 1001.65,2100.00"/>
    </edge>
    <edge id=":32_7" function="internal">
        <lane id=":32_7_0" index="0" speed="16.70" length="3.30" shape="1000.00,2104.95 1000.00,2101.65"/>
    </edge>
    <edge id=":32_8" function="internal">
        <lane id=":32_8_0" index="0" speed="16.70" length="5.59" shape="1000.00,2101.65 1002.17,2101.55 1003.71,2101.24 1004.64,2100.72 1004.95,2100.00"/>
    </edge>
    <edge id=":32_9" function="internal">
        <lane id=":32_9_0" index="0" speed="16.70" length="3.30" shape="1000.00,2101.65 1000.00,2104.95"/>
    </edge>
    <edge id=":32_10" function="internal">
        <lane id=":32_10_0" index="0" speed="16.70" length="2.41" shape="1000.00,2101.65 998.76,2100.83 998.35,2100.00"/>
    </edge>
    <edge id=":32_12" function="internal">
        <lane id=":32_12_0" index="0" speed="16.70" length="2.41" shape="998.35,2100.00 998.76,2099.17 1000.00,2098.35"/>
    </edge>
    <edge id=":33_0" function="internal">
        <lane id=":33_0_0" index="0" speed="16.70" length="5.59" shape="1995.05,2100.00 1995.36,2099.28 1996.29,2098.76 1997.83,2098.45 2000.00,2098.35"/>
    </edge>
    <edge id=":33_1" function="internal">
        <lane id=":33_1_0" index="0" speed="16.70" length="5.59" shape="1998.35,2100.00 1998.45,2097.83 1998.76,2096.29 1999.28,2095.36 2000.00,2095.05"/>
    </edge>
    <edge id=":33_2" function="internal">
        <lane id=":33_2_0" index="0" speed="16.70" length="2.41" shape="1998.35,2100.00 1999.18,2098.76 2000.00,2098.35"/>
    </edge>
    <edge id=":33_6" function="internal">
        <lane id=":33_6_0" index="0" speed="16.70" length="2.41" shape="2000.00,2098.35 2000.83,2098.76 2001.65,2100.00"/>
    </edge>
    <edge id=":33_3" function="internal">
        <lane id=":33_3_0" index="0" speed="16.70" length="5.59" shape="2000.00,2104.95 2000.72,2104.64 2001.24,2103.71 2001.55,2102.17 2001.65,2100.00"/>
    </edge>
    <edge id=":33_4" function="internal">
        <lane id=":33_4_0" index="0" speed="16.70" length="5.59" shape="2000.00,2101.65 2002.17,2101.55 2003.71,2101.24 2004.64,2100.72 2004.95,2100.00"/>
    </edge>
    <edge id=":33_5" function="internal">
        <lane id=":33_5_0" index="0" speed="16.70" length="2.41" shape="2000.00,2101.65 1998.76,2100.83 1998.35,2100.00"/>
    </edge>
    <edge id=":33_7" function="internal">
        <lane id=":33_7_0" index="0" speed="16.70" length="2.41" shape="1998.35,2100.00 1998.76,2099.17 2000.00,2098.35"/>
    </edge>
    <edge id=":depot_0" function="internal">
        <lane id=":depot_0_0" index="0" speed="16.70" length="4.82" shape="1.65,0.00 0.83,1.24 0.00,1.65 -0.82,1.24 -1.65,0.00"/>
    </edge>

    <edge id="1112" from="11" to="12" priority="-1">
        <lane id="1112_0" index="0" speed="16.70" length="1000.00" shape="0.00,104.95 1000.00,104.95"/>
        <lane id="1112_1" index="1" speed="16.70" length="1000.00" shape="0.00,101.65 1000.00,101.65"/>
    </edge>
    <edge id="1121" from="11" to="21" priority="-1">
        <lane id="1121_0" index="0" speed="16.70" length="1000.00" shape="-4.95,100.00 -4.95,1100.00"/>
        <lane id="1121_1" index="1" speed="16.70" length="1000.00" shape="-1.65,100.00 -1.65,1100.00"/>
    </edge>
    <edge id="1211" from="12" to="11" priority="-1">
        <lane id="1211_0" index="0" speed="16.70" length="1000.00" shape="1000.00,95.05 0.00,95.05"/>
        <lane id="1211_1" index="1" speed="16.70" length="1000.00" shape="1000.00,98.35 0.00,98.35"/>
    </edge>
    <edge id="1213" from="12" to="13" priority="-1">
        <lane id="1213_0" index="0" speed="16.70" length="1000.00" shape="1000.00,104.95 2000.00,104.95"/>
        <lane id="1213_1" index="1" speed="16.70" length="1000.00" shape="1000.00,101.65 2000.00,101.65"/>
    </edge>
    <edge id="1222" from="12" to="22" priority="-1">
        <lane id="1222_0" index="0" speed="16.70" length="1000.00" shape="995.05,100.00 995.05,1100.00"/>
        <lane id="1222_1" index="1" speed="16.70" length="1000.00" shape="998.35,100.00 998.35,1100.00"/>
    </edge>
    <edge id="1312" from="13" to="12" priority="-1">
        <lane id="1312_0" index="0" speed="16.70" length="1000.00" shape="2000.00,95.05 1000.00,95.05"/>
        <lane id="1312_1" index="1" speed="16.70" length="1000.00" shape="2000.00,98.35 1000.00,98.35"/>
    </edge>
    <edge id="1323" from="13" to="23" priority="-1">
        <lane id="1323_0" index="0" speed="16.70" length="1000.00" shape="1995.05,100.00 1995.05,1100.00"/>
        <lane id="1323_1" index="1" speed="16.70" length="1000.00" shape="1998.35,100.00 1998.35,1100.00"/>
    </edge>
    <edge id="2111" from="21" to="11" priority="-1">
        <lane id="2111_0" index="0" speed="16.70" length="1000.00" shape="4.95,1100.00 4.95,100.00"/>
        <lane id="2111_1" index="1" speed="16.70" length="1000.00" shape="1.65,1100.00 1.65,100.00"/>
    </edge>
    <edge id="2122" from="21" to="22" priority="-1">
        <lane id="2122_0" index="0" speed="16.70" length="1000.00" shape="0.00,1104.95 1000.00,1104.95"/>
        <lane id="2122_1" index="1" speed="16.70" length="1000.00" shape="0.00,1101.65 1000.00,1101.65"/>
    </edge>
    <edge id="2131" from="21" to="31" priority="-1">
        <lane id="2131_0" index="0" speed="16.70" length="1000.00" shape="-4.95,1100.00 -4.95,2100.00"/>
        <lane id="2131_1" index="1" speed="16.70" length="1000.00" shape="-1.65,1100.00 -1.65,2100.00"/>
    </edge>
    <edge id="2212" from="22" to="12" priority="-1">
        <lane id="2212_0" index="0" speed="16.70" length="1000.00" shape="1004.95,1100.00 1004.95,100.00"/>
        <lane id="2212_1" index="1" speed="16.70" length="1000.00" shape="1001.65,1100.00 1001.65,100.00"/>
    </edge>
    <edge id="2221" from="22" to="21" priority="-1">
        <lane id="2221_0" index="0" speed="16.70" length="1000.00" shape="1000.00,1095.05 0.00,1095.05"/>
        <lane id="2221_1" index="1" speed="16.70" length="1000.00" shape="1000.00,1098.35 0.00,1098.35"/>
    </edge>
    <edge id="2223" from="22" to="23" priority="-1">
        <lane id="2223_0" index="0" speed="16.70" length="1000.00" shape="1000.00,1104.95 2000.00,1104.95"/>
        <lane id="2223_1" index="1" speed="16.70" length="1000.00" shape="1000.00,1101.65 2000.00,1101.65"/>
    </edge>
    <edge id="2232" from="22" to="32" priority="-1">
        <lane id="2232_0" index="0" speed="16.70" length="1000.00" shape="995.05,1100.00 995.05,2100.00"/>
        <lane id="2232_1" index="1" speed="16.70" length="1000.00" shape="998.35,1100.00 998.35,2100.00"/>
    </edge>
    <edge id="2313" from="23" to="13" priority="-1">
        <lane id="2313_0" index="0" speed="16.70" length="1000.00" shape="2004.95,1100.00 2004.95,100.00"/>
        <lane id="2313_1" index="1" speed="16.70" length="1000.00" shape="2001.65,1100.00 2001.65,100.00"/>
    </edge>
    <edge id="2322" from="23" to="22" priority="-1">
        <lane id="2322_0" index="0" speed="16.70" length="1000.00" shape="2000.00,1095.05 1000.00,1095.05"/>
        <lane id="2322_1" index="1" speed="16.70" length="1000.00" shape="2000.00,1098.35 1000.00,1098.35"/>
    </edge>
    <edge id="2333" from="23" to="33" priority="-1">
        <lane id="2333_0" index="0" speed="16.70" length="1000.00" shape="1995.05,1100.00 1995.05,2100.00"/>
        <lane id="2333_1" index="1" speed="16.70" length="1000.00" shape="1998.35,1100.00 1998.35,2100.00"/>
    </edge>
    <edge id="3121" from="31" to="21" priority="-1">
        <lane id="3121_0" index="0" speed="16.70" length="996.75" shape="4.95,2098.40 4.95,1100.00"/>
        <lane id="3121_1" index="1" speed="16.70" length="996.75" shape="1.65,2095.10 1.65,1100.00"/>
    </edge>
    <edge id="3132" from="31" to="32" priority="-1">
        <lane id="3132_0" index="0" speed="16.70" length="1000.00" shape="0.00,2104.95 1000.00,2104.95"/>
        <lane id="3132_1" index="1" speed="16.70" length="1000.00" shape="0.00,2101.65 1000.00,2101.65"/>
    </edge>
    <edge id="3222" from="32" to="22" priority="-1">
        <lane id="3222_0" index="0" speed="16.70" length="1000.00" shape="1004.95,2100.00 1004.95,1100.00"/>
        <lane id="3222_1" index="1" speed="16.70" length="1000.00" shape="1001.65,2100.00 1001.65,1100.00"/>
    </edge>
    <edge id="3231" from="32" to="31" priority="-1">
        <lane id="3231_0" index="0" speed="16.70" length="996.75" shape="1000.00,2095.05 1.60,2095.05"/>
        <lane id="3231_1" index="1" speed="16.70" length="996.75" shape="1000.00,2098.35 4.90,2098.35"/>
    </edge>
    <edge id="3233" from="32" to="33" priority="-1">
        <lane id="3233_0" index="0" speed="16.70" length="1000.00" shape="1000.00,2104.95 2000.00,2104.95"/>
        <lane id="3233_1" index="1" speed="16.70" length="1000.00" shape="1000.00,2101.65 2000.00,2101.65"/>
    </edge>
    <edge id="3323" from="33" to="23" priority="-1">
        <lane id="3323_0" index="0" speed="16.70" length="1000.00" shape="2004.95,2100.00 2004.95,1100.00"/>
        <lane id="3323_1" index="1" speed="16.70" length="1000.00" shape="2001.65,2100.00 2001.65,1100.00"/>
    </edge>
    <edge id="3332" from="33" to="32" priority="-1">
        <lane id="3332_0" index="0" speed="16.70" length="1000.00" shape="2000.00,2095.05 1000.00,2095.05"/>
        <lane id="3332_1" index="1" speed="16.70" length="1000.00" shape="2000.00,2098.35 1000.00,2098.35"/>
    </edge>
    <edge id="in" from="11" to="depot" priority="-1">
        <lane id="in_0" index="0" speed="16.70" length="100.00" shape="4.95,100.00 4.95,0.00"/>
        <lane id="in_1" index="1" speed="16.70" length="100.00" shape="1.65,100.00 1.65,0.00"/>
    </edge>
    <edge id="out" from="depot" to="11" priority="-1">
        <lane id="out_0" index="0" speed="16.70" length="100.00" shape="-4.95,0.00 -4.95,100.00"/>
        <lane id="out_1" index="1" speed="16.70" length="100.00" shape="-1.65,0.00 -1.65,100.00"/>
    </edge>

    <junction id="11" type="priority" x="0.00" y="100.00" incLanes="2111_0 2111_1 1211_0 1211_1 out_0 out_1" intLanes=":11_0_0 :11_1_0 :11_2_0 :11_11_0 :11_4_0 :11_5_0 :11_6_0 :11_7_0 :11_8_0 :11_9_0 :11_12_0" shape="0.05,101.45 -0.05,101.45 1.45,99.95 1.45,100.05 -0.05,98.55">
        <request index="0" response="00000000000" foes="10100110000" cont="0"/>
        <request index="1" response="00000000000" foes="00101000000" cont="0"/>
        <request index="2" response="00000000000" foes="10100110000" cont="0"/>
        <request index="3" response="01010100000" foes="01010100000" cont="1"/>
        <request index="4" response="00000000101" foes="10000000101" cont="0"/>
        <request index="5" response="01110000101" foes="01110001101" cont="0"/>
        <request index="6" response="00100000010" foes="00100000010" cont="0"/>
        <request index="7" response="00000000000" foes="00000101000" cont="0"/>
        <request index="8" response="00000000111" foes="00001100111" cont="0"/>
        <request index="9" response="00000000000" foes="00000101000" cont="0"/>
        <request index="10" response="00000010101" foes="00000010101" cont="1"/>
    </junction>
    <junction id="12" type="priority" x="1000.00" y="100.00" incLanes="2212_0 2212_1 1312_0 1312_1 1112_0 1112_1" intLanes=":12_0_0 :12_1_0 :12_2_0 :12_3_0 :12_4_0 :12_5_0 :12_11_0 :12_7_0 :12_8_0 :12_9_0 :12_12_0" shape="1000.05,101.45 1001.45,99.95 1001.45,100.05 998.55,100.05 998.55,99.95">
        <request index="0" response="01010000000" foes="01011000000" cont="0"/>
        <request index="1" response="01010111000" foes="11010111000" cont="0"/>
        <request index="2" response="00100010000" foes="00100010000" cont="0"/>
        <request index="3" response="00000000000" foes="10000000010" cont="0"/>
        <request index="4" response="01110000000" foes="01110000110" cont="0"/>